Fri Jul  8 17:43:46 2005
Run as: "./do_simple -c 16_byte_cache_line_random.org4 -o 4 -L 16 memory_tuned4_heapsort"
-------------------------------------------------------------------------------------------------
sim-cache                                     4096 |         4096 |         4096 |         4096 |         8192 |         8192 |         8192 |         8192 |        16384 |        16384 |        16384 |        16384 |        32768 |        32768 |        32768 |        32768 |        65536 |        65536 |        65536 |        65536 |       131072 |       131072 |       131072 |       131072 |       262144 |       262144 |       262144 |       262144 |       524288 |       524288 |       524288 |       524288 |      1048576 |      1048576 |      1048576 |      1048576 |      2097152 |      2097152 |      2097152 |      2097152 |      4194304 |      4194304 |      4194304 |      4194304 |
-cache:dl1 dl1:512:16:1:l -cache:dl2 dl2:262144:16:1:l -cache:il1 il1:512:16:1:l -cache:il2 dl2
-cache:dl1 dl1:512:16:1:l -cache:dl2 dl2:131072:16:1:l -cache:il1 il1:512:16:1:l -cache:il2 dl2
-cache:dl1 dl1:1:16:512:l -cache:dl2 dl2:1:16:262144:l -cache:il1 il1:1:16:512:l -cache:il2 dl2
-cache:dl1 dl1:1:16:512:l -cache:dl2 dl2:1:16:131072:l -cache:il1 il1:1:16:512:l -cache:il2 dl2
-------------------------------------------------------------------------------------------------
sim_num_insn                                870594 |       870594 |       870594 |       870594 |      1869877 |      1869877 |      1869877 |      1869877 |      4002548 |      4002548 |      4002548 |      4002548 |      8531166 |      8531166 |      8531166 |      8531166 |     18157884 |     18157884 |     18157884 |     18157884 |     38447589 |     38447589 |     38447589 |     38447589 |     81284095 |     81284095 |     81284095 |     81284095 |    171088521 |    171088521 |    171088521 |    171088521 |    359787499 |    359787499 |    359787499 |    359787499 |    753703962 |    753703962 |    753703962 |    753703962 |   1577798504 |   1577798504 |   1577798504 |   1577798504 |
sim_num_refs                                218014 |       218014 |       218014 |       218014 |       464996 |       464996 |       464996 |       464996 |       991228 |       991228 |       991228 |       991228 |      2107666 |      2107666 |      2107666 |      2107666 |      4477246 |      4477246 |      4477246 |      4477246 |      9469668 |      9469668 |      9469668 |      9469668 |     19995924 |     19995924 |     19995924 |     19995924 |     42054832 |     42054832 |     42054832 |     42054832 |     88361887 |     88361887 |     88361887 |     88361887 |    184994454 |    184994454 |    184994454 |    184994454 |    386968555 |    386968555 |    386968555 |    386968555 |
sim_elapsed_time                                 1 |            1 |           39 |           20 |            1 |            1 |           60 |           30 |            1 |            1 |          103 |           52 |            3 |            2 |          187 |           92 |            5 |            5 |          346 |          164 |           12 |           11 |          633 |          274 |           23 |           24 |         1062 |          376 |           51 |           50 |         1430 |          401 |          105 |          106 |         1506 |          471 |          222 |          230 |         1652 |          614 |          468 |          472 |         1969 |          928 |
sim_inst_rate                          870594.0000 |  870594.0000 |   22322.9231 |   43529.7000 | 1869877.0000 | 1869877.0000 |   31164.6167 |   62329.2333 | 4002548.0000 | 4002548.0000 |   38859.6893 |   76972.0769 | 2843722.0000 | 4265583.0000 |   45621.2086 |   92730.0652 | 3631576.8000 | 3631576.8000 |   52479.4335 |  110718.8049 | 3203965.7500 | 3495235.3636 |   60738.6872 |  140319.6679 | 3534091.0870 | 3386837.2917 |   76538.6959 |  216181.1037 | 3354676.8824 | 3421770.4200 |  119642.3224 |  426654.6658 | 3426547.6095 | 3394221.6887 |  238902.7218 |  763880.0403 | 3395062.8919 | 3276973.7478 |  456237.2651 | 1227530.8827 | 3371364.3248 | 3342793.4407 |  801319.7075 | 1700213.9052 |
il1.accesses                                870594 |       870594 |       870594 |       870594 |      1869877 |      1869877 |      1869877 |      1869877 |      4002548 |      4002548 |      4002548 |      4002548 |      8531166 |      8531166 |      8531166 |      8531166 |     18157884 |     18157884 |     18157884 |     18157884 |     38447589 |     38447589 |     38447589 |     38447589 |     81284095 |     81284095 |     81284095 |     81284095 |    171088521 |    171088521 |    171088521 |    171088521 |    359787499 |    359787499 |    359787499 |    359787499 |    753703962 |    753703962 |    753703962 |    753703962 |   1577798504 |   1577798504 |   1577798504 |   1577798504 |
il1.hits                                    869670 |       869670 |       869824 |       869824 |      1868899 |      1868899 |      1869118 |      1869118 |      4001568 |      4001568 |      4001788 |      4001788 |      8530187 |      8530187 |      8530404 |      8530404 |     18156905 |     18156905 |     18157122 |     18157122 |     38446610 |     38446610 |     38446828 |     38446828 |     81283116 |     81283116 |     81283334 |     81283334 |    171087542 |    171087542 |    171087760 |    171087760 |    359786447 |    359786447 |    359786614 |    359786614 |    753702910 |    753702910 |    753703077 |    753703077 |   1577797452 |   1577797452 |   1577797619 |   1577797619 |
il1.misses                                     924 |          924 |          770 |          770 |          978 |          978 |          759 |          759 |          980 |          980 |          760 |          760 |          979 |          979 |          762 |          762 |          979 |          979 |          762 |          762 |          979 |          979 |          761 |          761 |          979 |          979 |          761 |          761 |          979 |          979 |          761 |          761 |         1052 |         1052 |          885 |          885 |         1052 |         1052 |          885 |          885 |         1052 |         1052 |          885 |          885 |
il1.replacements                               507 |          507 |          258 |          258 |          549 |          549 |          247 |          247 |          551 |          551 |          248 |          248 |          550 |          550 |          250 |          250 |          550 |          550 |          250 |          250 |          550 |          550 |          249 |          249 |          550 |          550 |          249 |          249 |          550 |          550 |          249 |          249 |          627 |          627 |          373 |          373 |          627 |          627 |          373 |          373 |          627 |          627 |          373 |          373 |
il1.writebacks                                   0 |            0 |            0 |            0 |            0 |            0 |            0 |            0 |            0 |            0 |            0 |            0 |            0 |            0 |            0 |            0 |            0 |            0 |            0 |            0 |            0 |            0 |            0 |            0 |            0 |            0 |            0 |            0 |            0 |            0 |            0 |            0 |            0 |            0 |            0 |            0 |            0 |            0 |            0 |            0 |            0 |            0 |            0 |            0 |
il1.invalidations                                0 |            0 |            0 |            0 |            0 |            0 |            0 |            0 |            0 |            0 |            0 |            0 |            0 |            0 |            0 |            0 |            0 |            0 |            0 |            0 |            0 |            0 |            0 |            0 |            0 |            0 |            0 |            0 |            0 |            0 |            0 |            0 |            0 |            0 |            0 |            0 |            0 |            0 |            0 |            0 |            0 |            0 |            0 |            0 |
il1.miss_rate                               0.0011 |       0.0011 |       0.0009 |       0.0009 |       0.0005 |       0.0005 |       0.0004 |       0.0004 |       0.0002 |       0.0002 |       0.0002 |       0.0002 |       0.0001 |       0.0001 |       0.0001 |       0.0001 |       0.0001 |       0.0001 |       0.0000 |       0.0000 |       0.0000 |       0.0000 |       0.0000 |       0.0000 |       0.0000 |       0.0000 |       0.0000 |       0.0000 |       0.0000 |       0.0000 |       0.0000 |       0.0000 |       0.0000 |       0.0000 |       0.0000 |       0.0000 |       0.0000 |       0.0000 |       0.0000 |       0.0000 |       0.0000 |       0.0000 |       0.0000 |       0.0000 |
il1.repl_rate                               0.0006 |       0.0006 |       0.0003 |       0.0003 |       0.0003 |       0.0003 |       0.0001 |       0.0001 |       0.0001 |       0.0001 |       0.0001 |       0.0001 |       0.0001 |       0.0001 |       0.0000 |       0.0000 |       0.0000 |       0.0000 |       0.0000 |       0.0000 |       0.0000 |       0.0000 |       0.0000 |       0.0000 |       0.0000 |       0.0000 |       0.0000 |       0.0000 |       0.0000 |       0.0000 |       0.0000 |       0.0000 |       0.0000 |       0.0000 |       0.0000 |       0.0000 |       0.0000 |       0.0000 |       0.0000 |       0.0000 |       0.0000 |       0.0000 |       0.0000 |       0.0000 |
il1.wb_rate                                 0.0000 |       0.0000 |       0.0000 |       0.0000 |       0.0000 |       0.0000 |       0.0000 |       0.0000 |       0.0000 |       0.0000 |       0.0000 |       0.0000 |       0.0000 |       0.0000 |       0.0000 |       0.0000 |       0.0000 |       0.0000 |       0.0000 |       0.0000 |       0.0000 |       0.0000 |       0.0000 |       0.0000 |       0.0000 |       0.0000 |       0.0000 |       0.0000 |       0.0000 |       0.0000 |       0.0000 |       0.0000 |       0.0000 |       0.0000 |       0.0000 |       0.0000 |       0.0000 |       0.0000 |       0.0000 |       0.0000 |       0.0000 |       0.0000 |       0.0000 |       0.0000 |
il1.inv_rate                                0.0000 |       0.0000 |       0.0000 |       0.0000 |       0.0000 |       0.0000 |       0.0000 |       0.0000 |       0.0000 |       0.0000 |       0.0000 |       0.0000 |       0.0000 |       0.0000 |       0.0000 |       0.0000 |       0.0000 |       0.0000 |       0.0000 |       0.0000 |       0.0000 |       0.0000 |       0.0000 |       0.0000 |       0.0000 |       0.0000 |       0.0000 |       0.0000 |       0.0000 |       0.0000 |       0.0000 |       0.0000 |       0.0000 |       0.0000 |       0.0000 |       0.0000 |       0.0000 |       0.0000 |       0.0000 |       0.0000 |       0.0000 |       0.0000 |       0.0000 |       0.0000 |
dl1.accesses                                234480 |       234480 |       234480 |       234480 |       497846 |       497846 |       497846 |       497846 |      1056846 |      1056846 |      1056846 |      1056846 |      2238820 |      2238820 |      2238820 |      2238820 |      4739472 |      4739472 |      4739472 |      4739472 |      9994038 |      9994038 |      9994038 |      9994038 |     21044582 |     21044582 |     21044582 |     21044582 |     44152066 |     44152066 |     44152066 |     44152066 |     92556273 |     92556273 |     92556273 |     92556273 |    193383144 |    193383144 |    193383144 |    193383144 |    403745853 |    403745853 |    403745853 |    403745853 |
dl1.hits                                    226427 |       226427 |       226927 |       226927 |       478346 |       478346 |       479339 |       479339 |      1008222 |      1008222 |      1011395 |      1011395 |      2123072 |      2123072 |      2129703 |      2129703 |      4466890 |      4466890 |      4483045 |      4483045 |      9372565 |      9372565 |      9404837 |      9404837 |     19640077 |     19640077 |     19713956 |     19713956 |     41041523 |     41041523 |     41191276 |     41191276 |     85700609 |     85700609 |     86032495 |     86032495 |    178497589 |    178497589 |    179156357 |    179156357 |    371522772 |    371522772 |    372946809 |    372946809 |
dl1.misses                                    8053 |         8053 |         7553 |         7553 |        19500 |        19500 |        18507 |        18507 |        48624 |        48624 |        45451 |        45451 |       115748 |       115748 |       109117 |       109117 |       272582 |       272582 |       256427 |       256427 |       621473 |       621473 |       589201 |       589201 |      1404505 |      1404505 |      1330626 |      1330626 |      3110543 |      3110543 |      2960790 |      2960790 |      6855664 |      6855664 |      6523778 |      6523778 |     14885555 |     14885555 |     14226787 |     14226787 |     32223081 |     32223081 |     30799044 |     30799044 |
dl1.replacements                              7541 |         7541 |         7041 |         7041 |        18988 |        18988 |        17995 |        17995 |        48112 |        48112 |        44939 |        44939 |       115236 |       115236 |       108605 |       108605 |       272070 |       272070 |       255915 |       255915 |       620961 |       620961 |       588689 |       588689 |      1403993 |      1403993 |      1330114 |      1330114 |      3110031 |      3110031 |      2960278 |      2960278 |      6855152 |      6855152 |      6523266 |      6523266 |     14885043 |     14885043 |     14226275 |     14226275 |     32222569 |     32222569 |     30798532 |     30798532 |
dl1.writebacks                                6389 |         6389 |         5900 |         5900 |        16494 |        16494 |        15561 |        15561 |        42746 |        42746 |        39737 |        39737 |       104001 |       104001 |        97828 |        97828 |       249226 |       249226 |       234099 |       234099 |       574506 |       574506 |       544600 |       544600 |      1309963 |      1309963 |      1241284 |      1241284 |      2920393 |      2920393 |      2782182 |      2782182 |      6471570 |      6471570 |      6166065 |      6166065 |     14115413 |     14115413 |     13511097 |     13511097 |     30676872 |     30676872 |     29368755 |     29368755 |
dl1.invalidations                                0 |            0 |            0 |            0 |            0 |            0 |            0 |            0 |            0 |            0 |            0 |            0 |            0 |            0 |            0 |            0 |            0 |            0 |            0 |            0 |            0 |            0 |            0 |            0 |            0 |            0 |            0 |            0 |            0 |            0 |            0 |            0 |            0 |            0 |            0 |            0 |            0 |            0 |            0 |            0 |            0 |            0 |            0 |            0 |
dl1.miss_rate                               0.0343 |       0.0343 |       0.0322 |       0.0322 |       0.0392 |       0.0392 |       0.0372 |       0.0372 |       0.0460 |       0.0460 |       0.0430 |       0.0430 |       0.0517 |       0.0517 |       0.0487 |       0.0487 |       0.0575 |       0.0575 |       0.0541 |       0.0541 |       0.0622 |       0.0622 |       0.0590 |       0.0590 |       0.0667 |       0.0667 |       0.0632 |       0.0632 |       0.0705 |       0.0705 |       0.0671 |       0.0671 |       0.0741 |       0.0741 |       0.0705 |       0.0705 |       0.0770 |       0.0770 |       0.0736 |       0.0736 |       0.0798 |       0.0798 |       0.0763 |       0.0763 |
dl1.repl_rate                               0.0322 |       0.0322 |       0.0300 |       0.0300 |       0.0381 |       0.0381 |       0.0361 |       0.0361 |       0.0455 |       0.0455 |       0.0425 |       0.0425 |       0.0515 |       0.0515 |       0.0485 |       0.0485 |       0.0574 |       0.0574 |       0.0540 |       0.0540 |       0.0621 |       0.0621 |       0.0589 |       0.0589 |       0.0667 |       0.0667 |       0.0632 |       0.0632 |       0.0704 |       0.0704 |       0.0670 |       0.0670 |       0.0741 |       0.0741 |       0.0705 |       0.0705 |       0.0770 |       0.0770 |       0.0736 |       0.0736 |       0.0798 |       0.0798 |       0.0763 |       0.0763 |
dl1.wb_rate                                 0.0272 |       0.0272 |       0.0252 |       0.0252 |       0.0331 |       0.0331 |       0.0313 |       0.0313 |       0.0404 |       0.0404 |       0.0376 |       0.0376 |       0.0465 |       0.0465 |       0.0437 |       0.0437 |       0.0526 |       0.0526 |       0.0494 |       0.0494 |       0.0575 |       0.0575 |       0.0545 |       0.0545 |       0.0622 |       0.0622 |       0.0590 |       0.0590 |       0.0661 |       0.0661 |       0.0630 |       0.0630 |       0.0699 |       0.0699 |       0.0666 |       0.0666 |       0.0730 |       0.0730 |       0.0699 |       0.0699 |       0.0760 |       0.0760 |       0.0727 |       0.0727 |
dl1.inv_rate                                0.0000 |       0.0000 |       0.0000 |       0.0000 |       0.0000 |       0.0000 |       0.0000 |       0.0000 |       0.0000 |       0.0000 |       0.0000 |       0.0000 |       0.0000 |       0.0000 |       0.0000 |       0.0000 |       0.0000 |       0.0000 |       0.0000 |       0.0000 |       0.0000 |       0.0000 |       0.0000 |       0.0000 |       0.0000 |       0.0000 |       0.0000 |       0.0000 |       0.0000 |       0.0000 |       0.0000 |       0.0000 |       0.0000 |       0.0000 |       0.0000 |       0.0000 |       0.0000 |       0.0000 |       0.0000 |       0.0000 |       0.0000 |       0.0000 |       0.0000 |       0.0000 |
dl2.accesses                                 15366 |        15366 |        14223 |        14223 |        36972 |        36972 |        34827 |        34827 |        92350 |        92350 |        85948 |        85948 |       220728 |       220728 |       207707 |       207707 |       522787 |       522787 |       491288 |       491288 |      1196958 |      1196958 |      1134562 |      1134562 |      2715447 |      2715447 |      2572671 |      2572671 |      6031915 |      6031915 |      5743733 |      5743733 |     13328286 |     13328286 |     12690728 |     12690728 |     29002020 |     29002020 |     27738769 |     27738769 |     62901005 |     62901005 |     60168684 |     60168684 |
dl2.hits                                     11659 |        11659 |        10586 |        10586 |        31216 |        31216 |        29160 |        29160 |        82484 |        82484 |        76184 |        76184 |       202667 |       202667 |       189749 |       189749 |       488342 |       488342 |       456946 |       456946 |      1129746 |      1129746 |      1067453 |      1067453 |      2582697 |      2577689 |      2440026 |      2395383 |      5763087 |      5320360 |      5397192 |      5090289 |     11900540 |     11486607 |     11383395 |     10976359 |     25319039 |     24282664 |     24311961 |     23237581 |     53461080 |     50889627 |     51165492 |     48783292 |
dl2.misses                                    3707 |         3707 |         3637 |         3637 |         5756 |         5756 |         5667 |         5667 |         9866 |         9866 |         9764 |         9764 |        18061 |        18061 |        17958 |        17958 |        34445 |        34445 |        34342 |        34342 |        67212 |        67212 |        67109 |        67109 |       132750 |       137758 |       132645 |       177288 |       268828 |       711555 |       346541 |       653444 |      1427746 |      1841679 |      1307333 |      1714369 |      3682981 |      4719356 |      3426808 |      4501188 |      9439925 |     12011378 |      9003192 |     11385392 |
dl2.replacements                               466 |          466 |            0 |            0 |          456 |          456 |            0 |            0 |          514 |          514 |            0 |            0 |          515 |          515 |            0 |            0 |          515 |          515 |            0 |            0 |          515 |          515 |            0 |            0 |          517 |         8871 |            0 |        46216 |         8869 |       580483 |        84397 |       522372 |      1165602 |      1710607 |      1045189 |      1583297 |      3420837 |      4588284 |      3164664 |      4370116 |      9177781 |     11880306 |      8741048 |     11254320 |
dl2.writebacks                                 264 |          264 |            0 |            0 |          247 |          247 |            0 |            0 |          291 |          291 |            0 |            0 |          289 |          289 |            0 |            0 |          289 |          289 |            0 |            0 |          289 |          289 |            0 |            0 |          289 |         8643 |            0 |        44824 |         8643 |       452933 |        83005 |       388972 |       908677 |      1428341 |       778624 |      1296661 |      2856836 |      3971535 |      2591511 |      3748043 |      7945093 |     10568121 |      7497897 |      9936836 |
dl2.invalidations                                0 |            0 |            0 |            0 |            0 |            0 |            0 |            0 |            0 |            0 |            0 |            0 |            0 |            0 |            0 |            0 |            0 |            0 |            0 |            0 |            0 |            0 |            0 |            0 |            0 |            0 |            0 |            0 |            0 |            0 |            0 |            0 |            0 |            0 |            0 |            0 |            0 |            0 |            0 |            0 |            0 |            0 |            0 |            0 |
dl2.miss_rate                               0.2412 |       0.2412 |       0.2557 |       0.2557 |       0.1557 |       0.1557 |       0.1627 |       0.1627 |       0.1068 |       0.1068 |       0.1136 |       0.1136 |       0.0818 |       0.0818 |       0.0865 |       0.0865 |       0.0659 |       0.0659 |       0.0699 |       0.0699 |       0.0562 |       0.0562 |       0.0591 |       0.0591 |       0.0489 |       0.0507 |       0.0516 |       0.0689 |       0.0446 |       0.1180 |       0.0603 |       0.1138 |       0.1071 |       0.1382 |       0.1030 |       0.1351 |       0.1270 |       0.1627 |       0.1235 |       0.1623 |       0.1501 |       0.1910 |       0.1496 |       0.1892 |
dl2.repl_rate                               0.0303 |       0.0303 |       0.0000 |       0.0000 |       0.0123 |       0.0123 |       0.0000 |       0.0000 |       0.0056 |       0.0056 |       0.0000 |       0.0000 |       0.0023 |       0.0023 |       0.0000 |       0.0000 |       0.0010 |       0.0010 |       0.0000 |       0.0000 |       0.0004 |       0.0004 |       0.0000 |       0.0000 |       0.0002 |       0.0033 |       0.0000 |       0.0180 |       0.0015 |       0.0962 |       0.0147 |       0.0909 |       0.0875 |       0.1283 |       0.0824 |       0.1248 |       0.1180 |       0.1582 |       0.1141 |       0.1575 |       0.1459 |       0.1889 |       0.1453 |       0.1870 |
dl2.wb_rate                                 0.0172 |       0.0172 |       0.0000 |       0.0000 |       0.0067 |       0.0067 |       0.0000 |       0.0000 |       0.0032 |       0.0032 |       0.0000 |       0.0000 |       0.0013 |       0.0013 |       0.0000 |       0.0000 |       0.0006 |       0.0006 |       0.0000 |       0.0000 |       0.0002 |       0.0002 |       0.0000 |       0.0000 |       0.0001 |       0.0032 |       0.0000 |       0.0174 |       0.0014 |       0.0751 |       0.0145 |       0.0677 |       0.0682 |       0.1072 |       0.0614 |       0.1022 |       0.0985 |       0.1369 |       0.0934 |       0.1351 |       0.1263 |       0.1680 |       0.1246 |       0.1651 |
dl2.inv_rate                                0.0000 |       0.0000 |       0.0000 |       0.0000 |       0.0000 |       0.0000 |       0.0000 |       0.0000 |       0.0000 |       0.0000 |       0.0000 |       0.0000 |       0.0000 |       0.0000 |       0.0000 |       0.0000 |       0.0000 |       0.0000 |       0.0000 |       0.0000 |       0.0000 |       0.0000 |       0.0000 |       0.0000 |       0.0000 |       0.0000 |       0.0000 |       0.0000 |       0.0000 |       0.0000 |       0.0000 |       0.0000 |       0.0000 |       0.0000 |       0.0000 |       0.0000 |       0.0000 |       0.0000 |       0.0000 |       0.0000 |       0.0000 |       0.0000 |       0.0000 |       0.0000 |
itlb.accesses                               870594 |       870594 |       870594 |       870594 |      1869877 |      1869877 |      1869877 |      1869877 |      4002548 |      4002548 |      4002548 |      4002548 |      8531166 |      8531166 |      8531166 |      8531166 |     18157884 |     18157884 |     18157884 |     18157884 |     38447589 |     38447589 |     38447589 |     38447589 |     81284095 |     81284095 |     81284095 |     81284095 |    171088521 |    171088521 |    171088521 |    171088521 |    359787499 |    359787499 |    359787499 |    359787499 |    753703962 |    753703962 |    753703962 |    753703962 |   1577798504 |   1577798504 |   1577798504 |   1577798504 |
itlb.hits                                   870585 |       870585 |       870585 |       870585 |      1869868 |      1869868 |      1869868 |      1869868 |      4002539 |      4002539 |      4002539 |      4002539 |      8531157 |      8531157 |      8531157 |      8531157 |     18157875 |     18157875 |     18157875 |     18157875 |     38447580 |     38447580 |     38447580 |     38447580 |     81284086 |     81284086 |     81284086 |     81284086 |    171088512 |    171088512 |    171088512 |    171088512 |    359787490 |    359787490 |    359787490 |    359787490 |    753703953 |    753703953 |    753703953 |    753703953 |   1577798495 |   1577798495 |   1577798495 |   1577798495 |
itlb.misses                                      9 |            9 |            9 |            9 |            9 |            9 |            9 |            9 |            9 |            9 |            9 |            9 |            9 |            9 |            9 |            9 |            9 |            9 |            9 |            9 |            9 |            9 |            9 |            9 |            9 |            9 |            9 |            9 |            9 |            9 |            9 |            9 |            9 |            9 |            9 |            9 |            9 |            9 |            9 |            9 |            9 |            9 |            9 |            9 |
itlb.replacements                                0 |            0 |            0 |            0 |            0 |            0 |            0 |            0 |            0 |            0 |            0 |            0 |            0 |            0 |            0 |            0 |            0 |            0 |            0 |            0 |            0 |            0 |            0 |            0 |            0 |            0 |            0 |            0 |            0 |            0 |            0 |            0 |            0 |            0 |            0 |            0 |            0 |            0 |            0 |            0 |            0 |            0 |            0 |            0 |
itlb.writebacks                                  0 |            0 |            0 |            0 |            0 |            0 |            0 |            0 |            0 |            0 |            0 |            0 |            0 |            0 |            0 |            0 |            0 |            0 |            0 |            0 |            0 |            0 |            0 |            0 |            0 |            0 |            0 |            0 |            0 |            0 |            0 |            0 |            0 |            0 |            0 |            0 |            0 |            0 |            0 |            0 |            0 |            0 |            0 |            0 |
itlb.invalidations                               0 |            0 |            0 |            0 |            0 |            0 |            0 |            0 |            0 |            0 |            0 |            0 |            0 |            0 |            0 |            0 |            0 |            0 |            0 |            0 |            0 |            0 |            0 |            0 |            0 |            0 |            0 |            0 |            0 |            0 |            0 |            0 |            0 |            0 |            0 |            0 |            0 |            0 |            0 |            0 |            0 |            0 |            0 |            0 |
itlb.miss_rate                              0.0000 |       0.0000 |       0.0000 |       0.0000 |       0.0000 |       0.0000 |       0.0000 |       0.0000 |       0.0000 |       0.0000 |       0.0000 |       0.0000 |       0.0000 |       0.0000 |       0.0000 |       0.0000 |       0.0000 |       0.0000 |       0.0000 |       0.0000 |       0.0000 |       0.0000 |       0.0000 |       0.0000 |       0.0000 |       0.0000 |       0.0000 |       0.0000 |       0.0000 |       0.0000 |       0.0000 |       0.0000 |       0.0000 |       0.0000 |       0.0000 |       0.0000 |       0.0000 |       0.0000 |       0.0000 |       0.0000 |       0.0000 |       0.0000 |       0.0000 |       0.0000 |
itlb.repl_rate                              0.0000 |       0.0000 |       0.0000 |       0.0000 |       0.0000 |       0.0000 |       0.0000 |       0.0000 |       0.0000 |       0.0000 |       0.0000 |       0.0000 |       0.0000 |       0.0000 |       0.0000 |       0.0000 |       0.0000 |       0.0000 |       0.0000 |       0.0000 |       0.0000 |       0.0000 |       0.0000 |       0.0000 |       0.0000 |       0.0000 |       0.0000 |       0.0000 |       0.0000 |       0.0000 |       0.0000 |       0.0000 |       0.0000 |       0.0000 |       0.0000 |       0.0000 |       0.0000 |       0.0000 |       0.0000 |       0.0000 |       0.0000 |       0.0000 |       0.0000 |       0.0000 |
itlb.wb_rate                                0.0000 |       0.0000 |       0.0000 |       0.0000 |       0.0000 |       0.0000 |       0.0000 |       0.0000 |       0.0000 |       0.0000 |       0.0000 |       0.0000 |       0.0000 |       0.0000 |       0.0000 |       0.0000 |       0.0000 |       0.0000 |       0.0000 |       0.0000 |       0.0000 |       0.0000 |       0.0000 |       0.0000 |       0.0000 |       0.0000 |       0.0000 |       0.0000 |       0.0000 |       0.0000 |       0.0000 |       0.0000 |       0.0000 |       0.0000 |       0.0000 |       0.0000 |       0.0000 |       0.0000 |       0.0000 |       0.0000 |       0.0000 |       0.0000 |       0.0000 |       0.0000 |
itlb.inv_rate                               0.0000 |       0.0000 |       0.0000 |       0.0000 |       0.0000 |       0.0000 |       0.0000 |       0.0000 |       0.0000 |       0.0000 |       0.0000 |       0.0000 |       0.0000 |       0.0000 |       0.0000 |       0.0000 |       0.0000 |       0.0000 |       0.0000 |       0.0000 |       0.0000 |       0.0000 |       0.0000 |       0.0000 |       0.0000 |       0.0000 |       0.0000 |       0.0000 |       0.0000 |       0.0000 |       0.0000 |       0.0000 |       0.0000 |       0.0000 |       0.0000 |       0.0000 |       0.0000 |       0.0000 |       0.0000 |       0.0000 |       0.0000 |       0.0000 |       0.0000 |       0.0000 |
dtlb.accesses                               234480 |       234480 |       234480 |       234480 |       497846 |       497846 |       497846 |       497846 |      1056846 |      1056846 |      1056846 |      1056846 |      2238820 |      2238820 |      2238820 |      2238820 |      4739472 |      4739472 |      4739472 |      4739472 |      9994038 |      9994038 |      9994038 |      9994038 |     21044582 |     21044582 |     21044582 |     21044582 |     44152066 |     44152066 |     44152066 |     44152066 |     92556273 |     92556273 |     92556273 |     92556273 |    193383144 |    193383144 |    193383144 |    193383144 |    403745853 |    403745853 |    403745853 |    403745853 |
dtlb.hits                                   234464 |       234464 |       234464 |       234464 |       497822 |       497822 |       497822 |       497822 |      1056806 |      1056806 |      1056806 |      1056806 |      2238748 |      2238748 |      2238748 |      2238748 |      4739325 |      4739325 |      4739325 |      4739325 |      9993238 |      9993238 |      9993238 |      9993238 |     20987153 |     20987153 |     20987153 |     20987153 |     43801504 |     43801504 |     43801504 |     43801504 |     91260965 |     91260965 |     91260965 |     91260965 |    189531954 |    189531954 |    189531954 |    189531954 |    393444354 |    393444354 |    393444354 |    393444354 |
dtlb.misses                                     16 |           16 |           16 |           16 |           24 |           24 |           24 |           24 |           40 |           40 |           40 |           40 |           72 |           72 |           72 |           72 |          147 |          147 |          147 |          147 |          800 |          800 |          800 |          800 |        57429 |        57429 |        57429 |        57429 |       350562 |       350562 |       350562 |       350562 |      1295308 |      1295308 |      1295308 |      1295308 |      3851190 |      3851190 |      3851190 |      3851190 |     10301499 |     10301499 |     10301499 |     10301499 |
dtlb.replacements                                0 |            0 |            0 |            0 |            0 |            0 |            0 |            0 |            0 |            0 |            0 |            0 |            0 |            0 |            0 |            0 |           19 |           19 |           19 |           19 |          672 |          672 |          672 |          672 |        57301 |        57301 |        57301 |        57301 |       350434 |       350434 |       350434 |       350434 |      1295180 |      1295180 |      1295180 |      1295180 |      3851062 |      3851062 |      3851062 |      3851062 |     10301371 |     10301371 |     10301371 |     10301371 |
dtlb.writebacks                                  0 |            0 |            0 |            0 |            0 |            0 |            0 |            0 |            0 |            0 |            0 |            0 |            0 |            0 |            0 |            0 |           16 |           16 |           16 |           16 |          543 |          543 |          543 |          543 |        54223 |        54223 |        54223 |        54223 |       331656 |       331656 |       331656 |       331656 |      1235903 |      1235903 |      1235903 |      1235903 |      3701793 |      3701793 |      3701793 |      3701793 |      9965450 |      9965450 |      9965450 |      9965450 |
dtlb.invalidations                               0 |            0 |            0 |            0 |            0 |            0 |            0 |            0 |            0 |            0 |            0 |            0 |            0 |            0 |            0 |            0 |            0 |            0 |            0 |            0 |            0 |            0 |            0 |            0 |            0 |            0 |            0 |            0 |            0 |            0 |            0 |            0 |            0 |            0 |            0 |            0 |            0 |            0 |            0 |            0 |            0 |            0 |            0 |            0 |
dtlb.miss_rate                              0.0001 |       0.0001 |       0.0001 |       0.0001 |       0.0000 |       0.0000 |       0.0000 |       0.0000 |       0.0000 |       0.0000 |       0.0000 |       0.0000 |       0.0000 |       0.0000 |       0.0000 |       0.0000 |       0.0000 |       0.0000 |       0.0000 |       0.0000 |       0.0001 |       0.0001 |       0.0001 |       0.0001 |       0.0027 |       0.0027 |       0.0027 |       0.0027 |       0.0079 |       0.0079 |       0.0079 |       0.0079 |       0.0140 |       0.0140 |       0.0140 |       0.0140 |       0.0199 |       0.0199 |       0.0199 |       0.0199 |       0.0255 |       0.0255 |       0.0255 |       0.0255 |
dtlb.repl_rate                              0.0000 |       0.0000 |       0.0000 |       0.0000 |       0.0000 |       0.0000 |       0.0000 |       0.0000 |       0.0000 |       0.0000 |       0.0000 |       0.0000 |       0.0000 |       0.0000 |       0.0000 |       0.0000 |       0.0000 |       0.0000 |       0.0000 |       0.0000 |       0.0001 |       0.0001 |       0.0001 |       0.0001 |       0.0027 |       0.0027 |       0.0027 |       0.0027 |       0.0079 |       0.0079 |       0.0079 |       0.0079 |       0.0140 |       0.0140 |       0.0140 |       0.0140 |       0.0199 |       0.0199 |       0.0199 |       0.0199 |       0.0255 |       0.0255 |       0.0255 |       0.0255 |
dtlb.wb_rate                                0.0000 |       0.0000 |       0.0000 |       0.0000 |       0.0000 |       0.0000 |       0.0000 |       0.0000 |       0.0000 |       0.0000 |       0.0000 |       0.0000 |       0.0000 |       0.0000 |       0.0000 |       0.0000 |       0.0000 |       0.0000 |       0.0000 |       0.0000 |       0.0001 |       0.0001 |       0.0001 |       0.0001 |       0.0026 |       0.0026 |       0.0026 |       0.0026 |       0.0075 |       0.0075 |       0.0075 |       0.0075 |       0.0134 |       0.0134 |       0.0134 |       0.0134 |       0.0191 |       0.0191 |       0.0191 |       0.0191 |       0.0247 |       0.0247 |       0.0247 |       0.0247 |
dtlb.inv_rate                               0.0000 |       0.0000 |       0.0000 |       0.0000 |       0.0000 |       0.0000 |       0.0000 |       0.0000 |       0.0000 |       0.0000 |       0.0000 |       0.0000 |       0.0000 |       0.0000 |       0.0000 |       0.0000 |       0.0000 |       0.0000 |       0.0000 |       0.0000 |       0.0000 |       0.0000 |       0.0000 |       0.0000 |       0.0000 |       0.0000 |       0.0000 |       0.0000 |       0.0000 |       0.0000 |       0.0000 |       0.0000 |       0.0000 |       0.0000 |       0.0000 |       0.0000 |       0.0000 |       0.0000 |       0.0000 |       0.0000 |       0.0000 |       0.0000 |       0.0000 |       0.0000 |
ld_text_base                            0x00400000 |   0x00400000 |   0x00400000 |   0x00400000 |   0x00400000 |   0x00400000 |   0x00400000 |   0x00400000 |   0x00400000 |   0x00400000 |   0x00400000 |   0x00400000 |   0x00400000 |   0x00400000 |   0x00400000 |   0x00400000 |   0x00400000 |   0x00400000 |   0x00400000 |   0x00400000 |   0x00400000 |   0x00400000 |   0x00400000 |   0x00400000 |   0x00400000 |   0x00400000 |   0x00400000 |   0x00400000 |   0x00400000 |   0x00400000 |   0x00400000 |   0x00400000 |   0x00400000 |   0x00400000 |   0x00400000 |   0x00400000 |   0x00400000 |   0x00400000 |   0x00400000 |   0x00400000 |   0x00400000 |   0x00400000 |   0x00400000 |   0x00400000 |
ld_text_size                                 74304 |        74304 |        74304 |        74304 |        74336 |        74336 |        74336 |        74336 |        74352 |        74352 |        74352 |        74352 |        74368 |        74368 |        74368 |        74368 |        74368 |        74368 |        74368 |        74368 |        74368 |        74368 |        74368 |        74368 |        74368 |        74368 |        74368 |        74368 |        74368 |        74368 |        74368 |        74368 |        74368 |        74368 |        74368 |        74368 |        74368 |        74368 |        74368 |        74368 |        74368 |        74368 |        74368 |        74368 |
ld_data_base                            0x10000000 |   0x10000000 |   0x10000000 |   0x10000000 |   0x10000000 |   0x10000000 |   0x10000000 |   0x10000000 |   0x10000000 |   0x10000000 |   0x10000000 |   0x10000000 |   0x10000000 |   0x10000000 |   0x10000000 |   0x10000000 |   0x10000000 |   0x10000000 |   0x10000000 |   0x10000000 |   0x10000000 |   0x10000000 |   0x10000000 |   0x10000000 |   0x10000000 |   0x10000000 |   0x10000000 |   0x10000000 |   0x10000000 |   0x10000000 |   0x10000000 |   0x10000000 |   0x10000000 |   0x10000000 |   0x10000000 |   0x10000000 |   0x10000000 |   0x10000000 |   0x10000000 |   0x10000000 |   0x10000000 |   0x10000000 |   0x10000000 |   0x10000000 |
ld_data_size                                  8192 |         8192 |         8192 |         8192 |         8192 |         8192 |         8192 |         8192 |         8192 |         8192 |         8192 |         8192 |         8192 |         8192 |         8192 |         8192 |         8192 |         8192 |         8192 |         8192 |         8192 |         8192 |         8192 |         8192 |         8192 |         8192 |         8192 |         8192 |         8192 |         8192 |         8192 |         8192 |         8192 |         8192 |         8192 |         8192 |         8192 |         8192 |         8192 |         8192 |         8192 |         8192 |         8192 |         8192 |
ld_stack_base                           0x7fffc000 |   0x7fffc000 |   0x7fffc000 |   0x7fffc000 |   0x7fffc000 |   0x7fffc000 |   0x7fffc000 |   0x7fffc000 |   0x7fffc000 |   0x7fffc000 |   0x7fffc000 |   0x7fffc000 |   0x7fffc000 |   0x7fffc000 |   0x7fffc000 |   0x7fffc000 |   0x7fffc000 |   0x7fffc000 |   0x7fffc000 |   0x7fffc000 |   0x7fffc000 |   0x7fffc000 |   0x7fffc000 |   0x7fffc000 |   0x7fffc000 |   0x7fffc000 |   0x7fffc000 |   0x7fffc000 |   0x7fffc000 |   0x7fffc000 |   0x7fffc000 |   0x7fffc000 |   0x7fffc000 |   0x7fffc000 |   0x7fffc000 |   0x7fffc000 |   0x7fffc000 |   0x7fffc000 |   0x7fffc000 |   0x7fffc000 |   0x7fffc000 |   0x7fffc000 |   0x7fffc000 |   0x7fffc000 |
ld_stack_size                                16384 |        16384 |        16384 |        16384 |        16384 |        16384 |        16384 |        16384 |        16384 |        16384 |        16384 |        16384 |        16384 |        16384 |        16384 |        16384 |        16384 |        16384 |        16384 |        16384 |        16384 |        16384 |        16384 |        16384 |        16384 |        16384 |        16384 |        16384 |        16384 |        16384 |        16384 |        16384 |        16384 |        16384 |        16384 |        16384 |        16384 |        16384 |        16384 |        16384 |        16384 |        16384 |        16384 |        16384 |
ld_prog_entry                           0x00400140 |   0x00400140 |   0x00400140 |   0x00400140 |   0x00400140 |   0x00400140 |   0x00400140 |   0x00400140 |   0x00400140 |   0x00400140 |   0x00400140 |   0x00400140 |   0x00400140 |   0x00400140 |   0x00400140 |   0x00400140 |   0x00400140 |   0x00400140 |   0x00400140 |   0x00400140 |   0x00400140 |   0x00400140 |   0x00400140 |   0x00400140 |   0x00400140 |   0x00400140 |   0x00400140 |   0x00400140 |   0x00400140 |   0x00400140 |   0x00400140 |   0x00400140 |   0x00400140 |   0x00400140 |   0x00400140 |   0x00400140 |   0x00400140 |   0x00400140 |   0x00400140 |   0x00400140 |   0x00400140 |   0x00400140 |   0x00400140 |   0x00400140 |
ld_environ_base                         0x7fff8000 |   0x7fff8000 |   0x7fff8000 |   0x7fff8000 |   0x7fff8000 |   0x7fff8000 |   0x7fff8000 |   0x7fff8000 |   0x7fff8000 |   0x7fff8000 |   0x7fff8000 |   0x7fff8000 |   0x7fff8000 |   0x7fff8000 |   0x7fff8000 |   0x7fff8000 |   0x7fff8000 |   0x7fff8000 |   0x7fff8000 |   0x7fff8000 |   0x7fff8000 |   0x7fff8000 |   0x7fff8000 |   0x7fff8000 |   0x7fff8000 |   0x7fff8000 |   0x7fff8000 |   0x7fff8000 |   0x7fff8000 |   0x7fff8000 |   0x7fff8000 |   0x7fff8000 |   0x7fff8000 |   0x7fff8000 |   0x7fff8000 |   0x7fff8000 |   0x7fff8000 |   0x7fff8000 |   0x7fff8000 |   0x7fff8000 |   0x7fff8000 |   0x7fff8000 |   0x7fff8000 |   0x7fff8000 |
ld_target_big_endian                             0 |            0 |            0 |            0 |            0 |            0 |            0 |            0 |            0 |            0 |            0 |            0 |            0 |            0 |            0 |            0 |            0 |            0 |            0 |            0 |            0 |            0 |            0 |            0 |            0 |            0 |            0 |            0 |            0 |            0 |            0 |            0 |            0 |            0 |            0 |            0 |            0 |            0 |            0 |            0 |            0 |            0 |            0 |            0 |
mem.page_count                                  35 |           35 |           35 |           35 |           43 |           43 |           43 |           43 |           59 |           59 |           59 |           59 |           91 |           91 |           91 |           91 |          155 |          155 |          155 |          155 |          283 |          283 |          283 |          283 |          539 |          539 |          539 |          539 |         1051 |         1051 |         1051 |         1051 |         2081 |         2081 |         2081 |         2081 |         4135 |         4135 |         4135 |         4135 |         8243 |         8243 |         8243 |         8243 |
mem.page_mem                                  140k |         140k |         140k |         140k |         172k |         172k |         172k |         172k |         236k |         236k |         236k |         236k |         364k |         364k |         364k |         364k |         620k |         620k |         620k |         620k |        1132k |        1132k |        1132k |        1132k |        2156k |        2156k |        2156k |        2156k |        4204k |        4204k |        4204k |        4204k |        8324k |        8324k |        8324k |        8324k |       16540k |       16540k |       16540k |       16540k |       32972k |       32972k |       32972k |       32972k |
mem.ptab_misses                                 35 |           35 |           35 |           35 |           43 |           43 |           43 |           43 |           59 |           59 |           59 |           59 |           91 |           91 |           91 |           91 |          155 |          155 |          155 |          155 |          283 |          283 |          283 |          283 |          539 |          539 |          539 |          539 |         1051 |         1051 |         1051 |         1051 |         9188 |         9188 |         9188 |         9188 |        23532 |        23532 |        23532 |        23532 |        64822 |        64822 |        64822 |        64822 |
mem.ptab_accesses                          4411750 |      4411750 |      4411750 |      4411750 |      8935806 |      8935806 |      8935806 |      8935806 |     18584586 |     18584586 |     18584586 |     18584586 |     39063102 |     39063102 |     39063102 |     39063102 |     82571278 |     82571278 |     82571278 |     82571278 |    174239230 |    174239230 |    174239230 |    174239230 |    367686342 |    367686342 |    367686342 |    367686342 |    773119014 |    773119014 |    773119014 |    773119014 |   1624723340 |   1624723340 |   1624723340 |   1624723340 |   3402042934 |   3402042934 |   3402042934 |   3402042934 |   7119146520 |   7119146520 |   7119146520 |   7119146520 |
mem.ptab_miss_rate                          0.0000 |       0.0000 |       0.0000 |       0.0000 |       0.0000 |       0.0000 |       0.0000 |       0.0000 |       0.0000 |       0.0000 |       0.0000 |       0.0000 |       0.0000 |       0.0000 |       0.0000 |       0.0000 |       0.0000 |       0.0000 |       0.0000 |       0.0000 |       0.0000 |       0.0000 |       0.0000 |       0.0000 |       0.0000 |       0.0000 |       0.0000 |       0.0000 |       0.0000 |       0.0000 |       0.0000 |       0.0000 |       0.0000 |       0.0000 |       0.0000 |       0.0000 |       0.0000 |       0.0000 |       0.0000 |       0.0000 |       0.0000 |       0.0000 |       0.0000 |       0.0000 |
-------------------------------------------------------------------------------------------------
sim-bpred                                     4096 |         4096 |         4096 |         4096 |         4096 |         4096 |         4096 |         8192 |         8192 |         8192 |         8192 |         8192 |         8192 |         8192 |        16384 |        16384 |        16384 |        16384 |        16384 |        16384 |        16384 |        32768 |        32768 |        32768 |        32768 |        32768 |        32768 |        32768 |        65536 |        65536 |        65536 |        65536 |        65536 |        65536 |        65536 |       131072 |       131072 |       131072 |       131072 |       131072 |       131072 |       131072 |       262144 |       262144 |       262144 |       262144 |       262144 |       262144 |       262144 |       524288 |       524288 |       524288 |       524288 |       524288 |       524288 |       524288 |      1048576 |      1048576 |      1048576 |      1048576 |      1048576 |      1048576 |      1048576 |      2097152 |      2097152 |      2097152 |      2097152 |      2097152 |      2097152 |      2097152 |      4194304 |      4194304 |      4194304 |      4194304 |      4194304 |      4194304 |      4194304 |
-bpred bimod -bpred:bimod 512
-bpred bimod -bpred:bimod 1024
-bpred bimod -bpred:bimod 2048
-bpred 2lev -bpred:2lev 1 512 10 1
-bpred 2lev -bpred:2lev 1 1024 10 1
-bpred 2lev -bpred:2lev 1 2048 10 1
-bpred 2lev -bpred:2lev 1 4096 10 1
-------------------------------------------------------------------------------------------------
sim_num_insn                                870594 |       870594 |       870594 |       870594 |       870594 |       870594 |       870594 |      1869877 |      1869877 |      1869877 |      1869877 |      1869877 |      1869877 |      1869877 |      4002548 |      4002548 |      4002548 |      4002548 |      4002548 |      4002548 |      4002548 |      8531166 |      8531166 |      8531166 |      8531166 |      8531166 |      8531166 |      8531166 |     18157884 |     18157884 |     18157884 |     18157884 |     18157884 |     18157884 |     18157884 |     38447589 |     38447589 |     38447589 |     38447589 |     38447589 |     38447589 |     38447589 |     81284095 |     81284095 |     81284095 |     81284095 |     81284095 |     81284095 |     81284095 |    171088521 |    171088521 |    171088521 |    171088521 |    171088521 |    171088521 |    171088521 |    359787499 |    359787499 |    359787499 |    359787499 |    359787499 |    359787499 |    359787499 |    753703962 |    753703962 |    753703962 |    753703962 |    753703962 |    753703962 |    753703962 |   1577798504 |   1577798504 |   1577798504 |   1577798504 |   1577798504 |   1577798504 |   1577798504 |
sim_num_refs                                218014 |       218014 |       218014 |       218014 |       218014 |       218014 |       218014 |       464996 |       464996 |       464996 |       464996 |       464996 |       464996 |       464996 |       991228 |       991228 |       991228 |       991228 |       991228 |       991228 |       991228 |      2107666 |      2107666 |      2107666 |      2107666 |      2107666 |      2107666 |      2107666 |      4477246 |      4477246 |      4477246 |      4477246 |      4477246 |      4477246 |      4477246 |      9469668 |      9469668 |      9469668 |      9469668 |      9469668 |      9469668 |      9469668 |     19995924 |     19995924 |     19995924 |     19995924 |     19995924 |     19995924 |     19995924 |     42054832 |     42054832 |     42054832 |     42054832 |     42054832 |     42054832 |     42054832 |     88361887 |     88361887 |     88361887 |     88361887 |     88361887 |     88361887 |     88361887 |    184994454 |    184994454 |    184994454 |    184994454 |    184994454 |    184994454 |    184994454 |    386968555 |    386968555 |    386968555 |    386968555 |    386968555 |    386968555 |    386968555 |
sim_elapsed_time                                 1 |            1 |            1 |            1 |            1 |            1 |            1 |            1 |            1 |            1 |            1 |            1 |            1 |            1 |            1 |            1 |            1 |            1 |            1 |            1 |            1 |            1 |            2 |            1 |            1 |            1 |            1 |            1 |            2 |            3 |            2 |            3 |            2 |            3 |            2 |            5 |            5 |            5 |            5 |            5 |            6 |            5 |           10 |           11 |           11 |           11 |           11 |           10 |           11 |           22 |           23 |           22 |           23 |           23 |           23 |           24 |           47 |           48 |           48 |           48 |           48 |           48 |           49 |          101 |          100 |           99 |          102 |          103 |          102 |          101 |          211 |          211 |          211 |          215 |          214 |          213 |          213 |
sim_inst_rate                          870594.0000 |  870594.0000 |  870594.0000 |  870594.0000 |  870594.0000 |  870594.0000 |  870594.0000 | 1869877.0000 | 1869877.0000 | 1869877.0000 | 1869877.0000 | 1869877.0000 | 1869877.0000 | 1869877.0000 | 4002548.0000 | 4002548.0000 | 4002548.0000 | 4002548.0000 | 4002548.0000 | 4002548.0000 | 4002548.0000 | 8531166.0000 | 4265583.0000 | 8531166.0000 | 8531166.0000 | 8531166.0000 | 8531166.0000 | 8531166.0000 | 9078942.0000 | 6052628.0000 | 9078942.0000 | 6052628.0000 | 9078942.0000 | 6052628.0000 | 9078942.0000 | 7689517.8000 | 7689517.8000 | 7689517.8000 | 7689517.8000 | 7689517.8000 | 6407931.5000 | 7689517.8000 | 8128409.5000 | 7389463.1818 | 7389463.1818 | 7389463.1818 | 7389463.1818 | 8128409.5000 | 7389463.1818 | 7776750.9545 | 7438631.3478 | 7776750.9545 | 7438631.3478 | 7438631.3478 | 7438631.3478 | 7128688.3750 | 7655053.1702 | 7495572.8958 | 7495572.8958 | 7495572.8958 | 7495572.8958 | 7495572.8958 | 7342602.0204 | 7462415.4653 | 7537039.6200 | 7613171.3333 | 7389254.5294 | 7317514.1942 | 7389254.5294 | 7462415.4653 | 7477718.0284 | 7477718.0284 | 7477718.0284 | 7338597.6930 | 7372890.2056 | 7407504.7136 | 7407504.7136 |
sim_num_branches                            154999 |       154999 |       154999 |       154999 |       154999 |       154999 |       154999 |       333833 |       333833 |       333833 |       333833 |       333833 |       333833 |       333833 |       715437 |       715437 |       715437 |       715437 |       715437 |       715437 |       715437 |      1526876 |      1526876 |      1526876 |      1526876 |      1526876 |      1526876 |      1526876 |      3252574 |      3252574 |      3252574 |      3252574 |      3252574 |      3252574 |      3252574 |      6893616 |      6893616 |      6893616 |      6893616 |      6893616 |      6893616 |      6893616 |     14581079 |     14581079 |     14581079 |     14581079 |     14581079 |     14581079 |     14581079 |     30711249 |     30711249 |     30711249 |     30711249 |     30711249 |     30711249 |     30711249 |     64607949 |     64607949 |     64607949 |     64607949 |     64607949 |     64607949 |     64607949 |    135421988 |    135421988 |    135421988 |    135421988 |    135421988 |    135421988 |    135421988 |    283583474 |    283583474 |    283583474 |    283583474 |    283583474 |    283583474 |    283583474 |
sim_IPB                                     5.6168 |       5.6168 |       5.6168 |       5.6168 |       5.6168 |       5.6168 |       5.6168 |       5.6012 |       5.6012 |       5.6012 |       5.6012 |       5.6012 |       5.6012 |       5.6012 |       5.5945 |       5.5945 |       5.5945 |       5.5945 |       5.5945 |       5.5945 |       5.5945 |       5.5873 |       5.5873 |       5.5873 |       5.5873 |       5.5873 |       5.5873 |       5.5873 |       5.5826 |       5.5826 |       5.5826 |       5.5826 |       5.5826 |       5.5826 |       5.5826 |       5.5773 |       5.5773 |       5.5773 |       5.5773 |       5.5773 |       5.5773 |       5.5773 |       5.5746 |       5.5746 |       5.5746 |       5.5746 |       5.5746 |       5.5746 |       5.5746 |       5.5709 |       5.5709 |       5.5709 |       5.5709 |       5.5709 |       5.5709 |       5.5709 |       5.5688 |       5.5688 |       5.5688 |       5.5688 |       5.5688 |       5.5688 |       5.5688 |       5.5656 |       5.5656 |       5.5656 |       5.5656 |       5.5656 |       5.5656 |       5.5656 |       5.5638 |       5.5638 |       5.5638 |       5.5638 |       5.5638 |       5.5638 |       5.5638 |
bpred_bimod.lookups                         154999 |       154999 |       154999 |xxxxxxxxxxxxx |xxxxxxxxxxxxx |xxxxxxxxxxxxx |xxxxxxxxxxxxx |       333833 |       333833 |       333833 |xxxxxxxxxxxxx |xxxxxxxxxxxxx |xxxxxxxxxxxxx |xxxxxxxxxxxxx |       715437 |       715437 |       715437 |xxxxxxxxxxxxx |xxxxxxxxxxxxx |xxxxxxxxxxxxx |xxxxxxxxxxxxx |      1526876 |      1526876 |      1526876 |xxxxxxxxxxxxx |xxxxxxxxxxxxx |xxxxxxxxxxxxx |xxxxxxxxxxxxx |      3252574 |      3252574 |      3252574 |xxxxxxxxxxxxx |xxxxxxxxxxxxx |xxxxxxxxxxxxx |xxxxxxxxxxxxx |      6893616 |      6893616 |      6893616 |xxxxxxxxxxxxx |xxxxxxxxxxxxx |xxxxxxxxxxxxx |xxxxxxxxxxxxx |     14581079 |     14581079 |     14581079 |xxxxxxxxxxxxx |xxxxxxxxxxxxx |xxxxxxxxxxxxx |xxxxxxxxxxxxx |     30711249 |     30711249 |     30711249 |xxxxxxxxxxxxx |xxxxxxxxxxxxx |xxxxxxxxxxxxx |xxxxxxxxxxxxx |     64607949 |     64607949 |     64607949 |xxxxxxxxxxxxx |xxxxxxxxxxxxx |xxxxxxxxxxxxx |xxxxxxxxxxxxx |    135421988 |    135421988 |    135421988 |xxxxxxxxxxxxx |xxxxxxxxxxxxx |xxxxxxxxxxxxx |xxxxxxxxxxxxx |    283583474 |    283583474 |    283583474 |
bpred_bimod.updates                         154999 |       154999 |       154999 |xxxxxxxxxxxxx |xxxxxxxxxxxxx |xxxxxxxxxxxxx |xxxxxxxxxxxxx |       333833 |       333833 |       333833 |xxxxxxxxxxxxx |xxxxxxxxxxxxx |xxxxxxxxxxxxx |xxxxxxxxxxxxx |       715437 |       715437 |       715437 |xxxxxxxxxxxxx |xxxxxxxxxxxxx |xxxxxxxxxxxxx |xxxxxxxxxxxxx |      1526876 |      1526876 |      1526876 |xxxxxxxxxxxxx |xxxxxxxxxxxxx |xxxxxxxxxxxxx |xxxxxxxxxxxxx |      3252574 |      3252574 |      3252574 |xxxxxxxxxxxxx |xxxxxxxxxxxxx |xxxxxxxxxxxxx |xxxxxxxxxxxxx |      6893616 |      6893616 |      6893616 |xxxxxxxxxxxxx |xxxxxxxxxxxxx |xxxxxxxxxxxxx |xxxxxxxxxxxxx |     14581079 |     14581079 |     14581079 |xxxxxxxxxxxxx |xxxxxxxxxxxxx |xxxxxxxxxxxxx |xxxxxxxxxxxxx |     30711249 |     30711249 |     30711249 |xxxxxxxxxxxxx |xxxxxxxxxxxxx |xxxxxxxxxxxxx |xxxxxxxxxxxxx |     64607949 |     64607949 |     64607949 |xxxxxxxxxxxxx |xxxxxxxxxxxxx |xxxxxxxxxxxxx |xxxxxxxxxxxxx |    135421988 |    135421988 |    135421988 |xxxxxxxxxxxxx |xxxxxxxxxxxxx |xxxxxxxxxxxxx |xxxxxxxxxxxxx |    283583474 |    283583474 |    283583474 |
bpred_bimod.addr_hits                       124049 |       124057 |       124057 |xxxxxxxxxxxxx |xxxxxxxxxxxxx |xxxxxxxxxxxxx |xxxxxxxxxxxxx |       267047 |       267053 |       267053 |xxxxxxxxxxxxx |xxxxxxxxxxxxx |xxxxxxxxxxxxx |xxxxxxxxxxxxx |       573451 |       573457 |       573458 |xxxxxxxxxxxxx |xxxxxxxxxxxxx |xxxxxxxxxxxxx |xxxxxxxxxxxxx |      1221804 |      1221810 |      1221813 |xxxxxxxxxxxxx |xxxxxxxxxxxxx |xxxxxxxxxxxxx |xxxxxxxxxxxxx |      2603902 |      2603908 |      2603911 |xxxxxxxxxxxxx |xxxxxxxxxxxxx |xxxxxxxxxxxxx |xxxxxxxxxxxxx |      5514155 |      5514162 |      5514164 |xxxxxxxxxxxxx |xxxxxxxxxxxxx |xxxxxxxxxxxxx |xxxxxxxxxxxxx |     11674180 |     11674187 |     11674189 |xxxxxxxxxxxxx |xxxxxxxxxxxxx |xxxxxxxxxxxxx |xxxxxxxxxxxxx |     24565825 |     24565832 |     24565834 |xxxxxxxxxxxxx |xxxxxxxxxxxxx |xxxxxxxxxxxxx |xxxxxxxxxxxxx |     51711290 |     51711296 |     51711297 |xxxxxxxxxxxxx |xxxxxxxxxxxxx |xxxxxxxxxxxxx |xxxxxxxxxxxxx |    108311514 |    108311520 |    108311521 |xxxxxxxxxxxxx |xxxxxxxxxxxxx |xxxxxxxxxxxxx |xxxxxxxxxxxxx |    226964235 |    226964241 |    226964242 |
bpred_bimod.dir_hits                        124170 |       124178 |       124179 |xxxxxxxxxxxxx |xxxxxxxxxxxxx |xxxxxxxxxxxxx |xxxxxxxxxxxxx |       267174 |       267180 |       267180 |xxxxxxxxxxxxx |xxxxxxxxxxxxx |xxxxxxxxxxxxx |xxxxxxxxxxxxx |       573577 |       573583 |       573584 |xxxxxxxxxxxxx |xxxxxxxxxxxxx |xxxxxxxxxxxxx |xxxxxxxxxxxxx |      1221928 |      1221934 |      1221937 |xxxxxxxxxxxxx |xxxxxxxxxxxxx |xxxxxxxxxxxxx |xxxxxxxxxxxxx |      2604027 |      2604033 |      2604036 |xxxxxxxxxxxxx |xxxxxxxxxxxxx |xxxxxxxxxxxxx |xxxxxxxxxxxxx |      5514282 |      5514289 |      5514291 |xxxxxxxxxxxxx |xxxxxxxxxxxxx |xxxxxxxxxxxxx |xxxxxxxxxxxxx |     11674307 |     11674314 |     11674316 |xxxxxxxxxxxxx |xxxxxxxxxxxxx |xxxxxxxxxxxxx |xxxxxxxxxxxxx |     24565952 |     24565959 |     24565961 |xxxxxxxxxxxxx |xxxxxxxxxxxxx |xxxxxxxxxxxxx |xxxxxxxxxxxxx |     51711429 |     51711435 |     51711436 |xxxxxxxxxxxxx |xxxxxxxxxxxxx |xxxxxxxxxxxxx |xxxxxxxxxxxxx |    108311653 |    108311659 |    108311660 |xxxxxxxxxxxxx |xxxxxxxxxxxxx |xxxxxxxxxxxxx |xxxxxxxxxxxxx |    226964373 |    226964379 |    226964380 |
bpred_bimod.misses                           30829 |        30821 |        30820 |xxxxxxxxxxxxx |xxxxxxxxxxxxx |xxxxxxxxxxxxx |xxxxxxxxxxxxx |        66659 |        66653 |        66653 |xxxxxxxxxxxxx |xxxxxxxxxxxxx |xxxxxxxxxxxxx |xxxxxxxxxxxxx |       141860 |       141854 |       141853 |xxxxxxxxxxxxx |xxxxxxxxxxxxx |xxxxxxxxxxxxx |xxxxxxxxxxxxx |       304948 |       304942 |       304939 |xxxxxxxxxxxxx |xxxxxxxxxxxxx |xxxxxxxxxxxxx |xxxxxxxxxxxxx |       648547 |       648541 |       648538 |xxxxxxxxxxxxx |xxxxxxxxxxxxx |xxxxxxxxxxxxx |xxxxxxxxxxxxx |      1379334 |      1379327 |      1379325 |xxxxxxxxxxxxx |xxxxxxxxxxxxx |xxxxxxxxxxxxx |xxxxxxxxxxxxx |      2906772 |      2906765 |      2906763 |xxxxxxxxxxxxx |xxxxxxxxxxxxx |xxxxxxxxxxxxx |xxxxxxxxxxxxx |      6145297 |      6145290 |      6145288 |xxxxxxxxxxxxx |xxxxxxxxxxxxx |xxxxxxxxxxxxx |xxxxxxxxxxxxx |     12896520 |     12896514 |     12896513 |xxxxxxxxxxxxx |xxxxxxxxxxxxx |xxxxxxxxxxxxx |xxxxxxxxxxxxx |     27110335 |     27110329 |     27110328 |xxxxxxxxxxxxx |xxxxxxxxxxxxx |xxxxxxxxxxxxx |xxxxxxxxxxxxx |     56619101 |     56619095 |     56619094 |
bpred_bimod.jr_hits                           4157 |         4157 |         4157 |xxxxxxxxxxxxx |xxxxxxxxxxxxx |xxxxxxxxxxxxx |xxxxxxxxxxxxx |         8261 |         8261 |         8261 |xxxxxxxxxxxxx |xxxxxxxxxxxxx |xxxxxxxxxxxxx |xxxxxxxxxxxxx |        16453 |        16453 |        16453 |xxxxxxxxxxxxx |xxxxxxxxxxxxx |xxxxxxxxxxxxx |xxxxxxxxxxxxx |        32837 |        32837 |        32837 |xxxxxxxxxxxxx |xxxxxxxxxxxxx |xxxxxxxxxxxxx |xxxxxxxxxxxxx |        65605 |        65605 |        65605 |xxxxxxxxxxxxx |xxxxxxxxxxxxx |xxxxxxxxxxxxx |xxxxxxxxxxxxx |       131141 |       131141 |       131141 |xxxxxxxxxxxxx |xxxxxxxxxxxxx |xxxxxxxxxxxxx |xxxxxxxxxxxxx |       262213 |       262213 |       262213 |xxxxxxxxxxxxx |xxxxxxxxxxxxx |xxxxxxxxxxxxx |xxxxxxxxxxxxx |       524357 |       524357 |       524357 |xxxxxxxxxxxxx |xxxxxxxxxxxxx |xxxxxxxxxxxxx |xxxxxxxxxxxxx |      1048648 |      1048648 |      1048648 |xxxxxxxxxxxxx |xxxxxxxxxxxxx |xxxxxxxxxxxxx |xxxxxxxxxxxxx |      2097224 |      2097224 |      2097224 |xxxxxxxxxxxxx |xxxxxxxxxxxxx |xxxxxxxxxxxxx |xxxxxxxxxxxxx |      4194376 |      4194376 |      4194376 |
bpred_bimod.jr_seen                           4157 |         4157 |         4157 |xxxxxxxxxxxxx |xxxxxxxxxxxxx |xxxxxxxxxxxxx |xxxxxxxxxxxxx |         8262 |         8262 |         8262 |xxxxxxxxxxxxx |xxxxxxxxxxxxx |xxxxxxxxxxxxx |xxxxxxxxxxxxx |        16454 |        16454 |        16454 |xxxxxxxxxxxxx |xxxxxxxxxxxxx |xxxxxxxxxxxxx |xxxxxxxxxxxxx |        32838 |        32838 |        32838 |xxxxxxxxxxxxx |xxxxxxxxxxxxx |xxxxxxxxxxxxx |xxxxxxxxxxxxx |        65606 |        65606 |        65606 |xxxxxxxxxxxxx |xxxxxxxxxxxxx |xxxxxxxxxxxxx |xxxxxxxxxxxxx |       131142 |       131142 |       131142 |xxxxxxxxxxxxx |xxxxxxxxxxxxx |xxxxxxxxxxxxx |xxxxxxxxxxxxx |       262214 |       262214 |       262214 |xxxxxxxxxxxxx |xxxxxxxxxxxxx |xxxxxxxxxxxxx |xxxxxxxxxxxxx |       524358 |       524358 |       524358 |xxxxxxxxxxxxx |xxxxxxxxxxxxx |xxxxxxxxxxxxx |xxxxxxxxxxxxx |      1048649 |      1048649 |      1048649 |xxxxxxxxxxxxx |xxxxxxxxxxxxx |xxxxxxxxxxxxx |xxxxxxxxxxxxx |      2097225 |      2097225 |      2097225 |xxxxxxxxxxxxx |xxxxxxxxxxxxx |xxxxxxxxxxxxx |xxxxxxxxxxxxx |      4194377 |      4194377 |      4194377 |
bpred_bimod.jr_non_ras_hits.PP                   0 |            0 |            0 |xxxxxxxxxxxxx |xxxxxxxxxxxxx |xxxxxxxxxxxxx |xxxxxxxxxxxxx |            0 |            0 |            0 |xxxxxxxxxxxxx |xxxxxxxxxxxxx |xxxxxxxxxxxxx |xxxxxxxxxxxxx |            0 |            0 |            0 |xxxxxxxxxxxxx |xxxxxxxxxxxxx |xxxxxxxxxxxxx |xxxxxxxxxxxxx |            0 |            0 |            0 |xxxxxxxxxxxxx |xxxxxxxxxxxxx |xxxxxxxxxxxxx |xxxxxxxxxxxxx |            0 |            0 |            0 |xxxxxxxxxxxxx |xxxxxxxxxxxxx |xxxxxxxxxxxxx |xxxxxxxxxxxxx |            0 |            0 |            0 |xxxxxxxxxxxxx |xxxxxxxxxxxxx |xxxxxxxxxxxxx |xxxxxxxxxxxxx |            0 |            0 |            0 |xxxxxxxxxxxxx |xxxxxxxxxxxxx |xxxxxxxxxxxxx |xxxxxxxxxxxxx |            0 |            0 |            0 |xxxxxxxxxxxxx |xxxxxxxxxxxxx |xxxxxxxxxxxxx |xxxxxxxxxxxxx |            0 |            0 |            0 |xxxxxxxxxxxxx |xxxxxxxxxxxxx |xxxxxxxxxxxxx |xxxxxxxxxxxxx |            0 |            0 |            0 |xxxxxxxxxxxxx |xxxxxxxxxxxxx |xxxxxxxxxxxxx |xxxxxxxxxxxxx |            0 |            0 |            0 |
bpred_bimod.jr_non_ras_seen.PP                   0 |            0 |            0 |xxxxxxxxxxxxx |xxxxxxxxxxxxx |xxxxxxxxxxxxx |xxxxxxxxxxxxx |            0 |            0 |            0 |xxxxxxxxxxxxx |xxxxxxxxxxxxx |xxxxxxxxxxxxx |xxxxxxxxxxxxx |            0 |            0 |            0 |xxxxxxxxxxxxx |xxxxxxxxxxxxx |xxxxxxxxxxxxx |xxxxxxxxxxxxx |            0 |            0 |            0 |xxxxxxxxxxxxx |xxxxxxxxxxxxx |xxxxxxxxxxxxx |xxxxxxxxxxxxx |            0 |            0 |            0 |xxxxxxxxxxxxx |xxxxxxxxxxxxx |xxxxxxxxxxxxx |xxxxxxxxxxxxx |            0 |            0 |            0 |xxxxxxxxxxxxx |xxxxxxxxxxxxx |xxxxxxxxxxxxx |xxxxxxxxxxxxx |            0 |            0 |            0 |xxxxxxxxxxxxx |xxxxxxxxxxxxx |xxxxxxxxxxxxx |xxxxxxxxxxxxx |            0 |            0 |            0 |xxxxxxxxxxxxx |xxxxxxxxxxxxx |xxxxxxxxxxxxx |xxxxxxxxxxxxx |            1 |            1 |            1 |xxxxxxxxxxxxx |xxxxxxxxxxxxx |xxxxxxxxxxxxx |xxxxxxxxxxxxx |            1 |            1 |            1 |xxxxxxxxxxxxx |xxxxxxxxxxxxx |xxxxxxxxxxxxx |xxxxxxxxxxxxx |            1 |            1 |            1 |
bpred_bimod.bpred_addr_rate                 0.8003 |       0.8004 |       0.8004 |xxxxxxxxxxxxx |xxxxxxxxxxxxx |xxxxxxxxxxxxx |xxxxxxxxxxxxx |       0.7999 |       0.8000 |       0.8000 |xxxxxxxxxxxxx |xxxxxxxxxxxxx |xxxxxxxxxxxxx |xxxxxxxxxxxxx |       0.8015 |       0.8015 |       0.8015 |xxxxxxxxxxxxx |xxxxxxxxxxxxx |xxxxxxxxxxxxx |xxxxxxxxxxxxx |       0.8002 |       0.8002 |       0.8002 |xxxxxxxxxxxxx |xxxxxxxxxxxxx |xxxxxxxxxxxxx |xxxxxxxxxxxxx |       0.8006 |       0.8006 |       0.8006 |xxxxxxxxxxxxx |xxxxxxxxxxxxx |xxxxxxxxxxxxx |xxxxxxxxxxxxx |       0.7999 |       0.7999 |       0.7999 |xxxxxxxxxxxxx |xxxxxxxxxxxxx |xxxxxxxxxxxxx |xxxxxxxxxxxxx |       0.8006 |       0.8006 |       0.8006 |xxxxxxxxxxxxx |xxxxxxxxxxxxx |xxxxxxxxxxxxx |xxxxxxxxxxxxx |       0.7999 |       0.7999 |       0.7999 |xxxxxxxxxxxxx |xxxxxxxxxxxxx |xxxxxxxxxxxxx |xxxxxxxxxxxxx |       0.8004 |       0.8004 |       0.8004 |xxxxxxxxxxxxx |xxxxxxxxxxxxx |xxxxxxxxxxxxx |xxxxxxxxxxxxx |       0.7998 |       0.7998 |       0.7998 |xxxxxxxxxxxxx |xxxxxxxxxxxxx |xxxxxxxxxxxxx |xxxxxxxxxxxxx |       0.8003 |       0.8003 |       0.8003 |
bpred_bimod.bpred_dir_rate                  0.8011 |       0.8012 |       0.8012 |xxxxxxxxxxxxx |xxxxxxxxxxxxx |xxxxxxxxxxxxx |xxxxxxxxxxxxx |       0.8003 |       0.8003 |       0.8003 |xxxxxxxxxxxxx |xxxxxxxxxxxxx |xxxxxxxxxxxxx |xxxxxxxxxxxxx |       0.8017 |       0.8017 |       0.8017 |xxxxxxxxxxxxx |xxxxxxxxxxxxx |xxxxxxxxxxxxx |xxxxxxxxxxxxx |       0.8003 |       0.8003 |       0.8003 |xxxxxxxxxxxxx |xxxxxxxxxxxxx |xxxxxxxxxxxxx |xxxxxxxxxxxxx |       0.8006 |       0.8006 |       0.8006 |xxxxxxxxxxxxx |xxxxxxxxxxxxx |xxxxxxxxxxxxx |xxxxxxxxxxxxx |       0.7999 |       0.7999 |       0.7999 |xxxxxxxxxxxxx |xxxxxxxxxxxxx |xxxxxxxxxxxxx |xxxxxxxxxxxxx |       0.8006 |       0.8006 |       0.8006 |xxxxxxxxxxxxx |xxxxxxxxxxxxx |xxxxxxxxxxxxx |xxxxxxxxxxxxx |       0.7999 |       0.7999 |       0.7999 |xxxxxxxxxxxxx |xxxxxxxxxxxxx |xxxxxxxxxxxxx |xxxxxxxxxxxxx |       0.8004 |       0.8004 |       0.8004 |xxxxxxxxxxxxx |xxxxxxxxxxxxx |xxxxxxxxxxxxx |xxxxxxxxxxxxx |       0.7998 |       0.7998 |       0.7998 |xxxxxxxxxxxxx |xxxxxxxxxxxxx |xxxxxxxxxxxxx |xxxxxxxxxxxxx |       0.8003 |       0.8003 |       0.8003 |
bpred_bimod.bpred_jr_rate                   1.0000 |       1.0000 |       1.0000 |xxxxxxxxxxxxx |xxxxxxxxxxxxx |xxxxxxxxxxxxx |xxxxxxxxxxxxx |       0.9999 |       0.9999 |       0.9999 |xxxxxxxxxxxxx |xxxxxxxxxxxxx |xxxxxxxxxxxxx |xxxxxxxxxxxxx |       0.9999 |       0.9999 |       0.9999 |xxxxxxxxxxxxx |xxxxxxxxxxxxx |xxxxxxxxxxxxx |xxxxxxxxxxxxx |       1.0000 |       1.0000 |       1.0000 |xxxxxxxxxxxxx |xxxxxxxxxxxxx |xxxxxxxxxxxxx |xxxxxxxxxxxxx |       1.0000 |       1.0000 |       1.0000 |xxxxxxxxxxxxx |xxxxxxxxxxxxx |xxxxxxxxxxxxx |xxxxxxxxxxxxx |       1.0000 |       1.0000 |       1.0000 |xxxxxxxxxxxxx |xxxxxxxxxxxxx |xxxxxxxxxxxxx |xxxxxxxxxxxxx |       1.0000 |       1.0000 |       1.0000 |xxxxxxxxxxxxx |xxxxxxxxxxxxx |xxxxxxxxxxxxx |xxxxxxxxxxxxx |       1.0000 |       1.0000 |       1.0000 |xxxxxxxxxxxxx |xxxxxxxxxxxxx |xxxxxxxxxxxxx |xxxxxxxxxxxxx |       1.0000 |       1.0000 |       1.0000 |xxxxxxxxxxxxx |xxxxxxxxxxxxx |xxxxxxxxxxxxx |xxxxxxxxxxxxx |       1.0000 |       1.0000 |       1.0000 |xxxxxxxxxxxxx |xxxxxxxxxxxxx |xxxxxxxxxxxxx |xxxxxxxxxxxxx |       1.0000 |       1.0000 |       1.0000 |
bpred_bimod.bpred_jr_non_ras_rate.PP       <error: |      <error: |      <error: |xxxxxxxxxxxxx |xxxxxxxxxxxxx |xxxxxxxxxxxxx |xxxxxxxxxxxxx |      <error: |      <error: |      <error: |xxxxxxxxxxxxx |xxxxxxxxxxxxx |xxxxxxxxxxxxx |xxxxxxxxxxxxx |      <error: |      <error: |      <error: |xxxxxxxxxxxxx |xxxxxxxxxxxxx |xxxxxxxxxxxxx |xxxxxxxxxxxxx |      <error: |      <error: |      <error: |xxxxxxxxxxxxx |xxxxxxxxxxxxx |xxxxxxxxxxxxx |xxxxxxxxxxxxx |      <error: |      <error: |      <error: |xxxxxxxxxxxxx |xxxxxxxxxxxxx |xxxxxxxxxxxxx |xxxxxxxxxxxxx |      <error: |      <error: |      <error: |xxxxxxxxxxxxx |xxxxxxxxxxxxx |xxxxxxxxxxxxx |xxxxxxxxxxxxx |      <error: |      <error: |      <error: |xxxxxxxxxxxxx |xxxxxxxxxxxxx |xxxxxxxxxxxxx |xxxxxxxxxxxxx |      <error: |      <error: |      <error: |xxxxxxxxxxxxx |xxxxxxxxxxxxx |xxxxxxxxxxxxx |xxxxxxxxxxxxx |       0.0000 |       0.0000 |       0.0000 |xxxxxxxxxxxxx |xxxxxxxxxxxxx |xxxxxxxxxxxxx |xxxxxxxxxxxxx |       0.0000 |       0.0000 |       0.0000 |xxxxxxxxxxxxx |xxxxxxxxxxxxx |xxxxxxxxxxxxx |xxxxxxxxxxxxx |       0.0000 |       0.0000 |       0.0000 |
bpred_bimod.retstack_pushes                   4159 |         4159 |         4159 |xxxxxxxxxxxxx |xxxxxxxxxxxxx |xxxxxxxxxxxxx |xxxxxxxxxxxxx |         8264 |         8264 |         8264 |xxxxxxxxxxxxx |xxxxxxxxxxxxx |xxxxxxxxxxxxx |xxxxxxxxxxxxx |        16456 |        16456 |        16456 |xxxxxxxxxxxxx |xxxxxxxxxxxxx |xxxxxxxxxxxxx |xxxxxxxxxxxxx |        32840 |        32840 |        32840 |xxxxxxxxxxxxx |xxxxxxxxxxxxx |xxxxxxxxxxxxx |xxxxxxxxxxxxx |        65608 |        65608 |        65608 |xxxxxxxxxxxxx |xxxxxxxxxxxxx |xxxxxxxxxxxxx |xxxxxxxxxxxxx |       131144 |       131144 |       131144 |xxxxxxxxxxxxx |xxxxxxxxxxxxx |xxxxxxxxxxxxx |xxxxxxxxxxxxx |       262216 |       262216 |       262216 |xxxxxxxxxxxxx |xxxxxxxxxxxxx |xxxxxxxxxxxxx |xxxxxxxxxxxxx |       524360 |       524360 |       524360 |xxxxxxxxxxxxx |xxxxxxxxxxxxx |xxxxxxxxxxxxx |xxxxxxxxxxxxx |      1048650 |      1048650 |      1048650 |xxxxxxxxxxxxx |xxxxxxxxxxxxx |xxxxxxxxxxxxx |xxxxxxxxxxxxx |      2097226 |      2097226 |      2097226 |xxxxxxxxxxxxx |xxxxxxxxxxxxx |xxxxxxxxxxxxx |xxxxxxxxxxxxx |      4194378 |      4194378 |      4194378 |
bpred_bimod.retstack_pops                     4157 |         4157 |         4157 |xxxxxxxxxxxxx |xxxxxxxxxxxxx |xxxxxxxxxxxxx |xxxxxxxxxxxxx |         8262 |         8262 |         8262 |xxxxxxxxxxxxx |xxxxxxxxxxxxx |xxxxxxxxxxxxx |xxxxxxxxxxxxx |        16454 |        16454 |        16454 |xxxxxxxxxxxxx |xxxxxxxxxxxxx |xxxxxxxxxxxxx |xxxxxxxxxxxxx |        32838 |        32838 |        32838 |xxxxxxxxxxxxx |xxxxxxxxxxxxx |xxxxxxxxxxxxx |xxxxxxxxxxxxx |        65606 |        65606 |        65606 |xxxxxxxxxxxxx |xxxxxxxxxxxxx |xxxxxxxxxxxxx |xxxxxxxxxxxxx |       131142 |       131142 |       131142 |xxxxxxxxxxxxx |xxxxxxxxxxxxx |xxxxxxxxxxxxx |xxxxxxxxxxxxx |       262214 |       262214 |       262214 |xxxxxxxxxxxxx |xxxxxxxxxxxxx |xxxxxxxxxxxxx |xxxxxxxxxxxxx |       524358 |       524358 |       524358 |xxxxxxxxxxxxx |xxxxxxxxxxxxx |xxxxxxxxxxxxx |xxxxxxxxxxxxx |      1048648 |      1048648 |      1048648 |xxxxxxxxxxxxx |xxxxxxxxxxxxx |xxxxxxxxxxxxx |xxxxxxxxxxxxx |      2097224 |      2097224 |      2097224 |xxxxxxxxxxxxx |xxxxxxxxxxxxx |xxxxxxxxxxxxx |xxxxxxxxxxxxx |      4194376 |      4194376 |      4194376 |
bpred_bimod.used_ras.PP                       4157 |         4157 |         4157 |xxxxxxxxxxxxx |xxxxxxxxxxxxx |xxxxxxxxxxxxx |xxxxxxxxxxxxx |         8262 |         8262 |         8262 |xxxxxxxxxxxxx |xxxxxxxxxxxxx |xxxxxxxxxxxxx |xxxxxxxxxxxxx |        16454 |        16454 |        16454 |xxxxxxxxxxxxx |xxxxxxxxxxxxx |xxxxxxxxxxxxx |xxxxxxxxxxxxx |        32838 |        32838 |        32838 |xxxxxxxxxxxxx |xxxxxxxxxxxxx |xxxxxxxxxxxxx |xxxxxxxxxxxxx |        65606 |        65606 |        65606 |xxxxxxxxxxxxx |xxxxxxxxxxxxx |xxxxxxxxxxxxx |xxxxxxxxxxxxx |       131142 |       131142 |       131142 |xxxxxxxxxxxxx |xxxxxxxxxxxxx |xxxxxxxxxxxxx |xxxxxxxxxxxxx |       262214 |       262214 |       262214 |xxxxxxxxxxxxx |xxxxxxxxxxxxx |xxxxxxxxxxxxx |xxxxxxxxxxxxx |       524358 |       524358 |       524358 |xxxxxxxxxxxxx |xxxxxxxxxxxxx |xxxxxxxxxxxxx |xxxxxxxxxxxxx |      1048648 |      1048648 |      1048648 |xxxxxxxxxxxxx |xxxxxxxxxxxxx |xxxxxxxxxxxxx |xxxxxxxxxxxxx |      2097224 |      2097224 |      2097224 |xxxxxxxxxxxxx |xxxxxxxxxxxxx |xxxxxxxxxxxxx |xxxxxxxxxxxxx |      4194376 |      4194376 |      4194376 |
bpred_bimod.ras_hits.PP                       4157 |         4157 |         4157 |xxxxxxxxxxxxx |xxxxxxxxxxxxx |xxxxxxxxxxxxx |xxxxxxxxxxxxx |         8261 |         8261 |         8261 |xxxxxxxxxxxxx |xxxxxxxxxxxxx |xxxxxxxxxxxxx |xxxxxxxxxxxxx |        16453 |        16453 |        16453 |xxxxxxxxxxxxx |xxxxxxxxxxxxx |xxxxxxxxxxxxx |xxxxxxxxxxxxx |        32837 |        32837 |        32837 |xxxxxxxxxxxxx |xxxxxxxxxxxxx |xxxxxxxxxxxxx |xxxxxxxxxxxxx |        65605 |        65605 |        65605 |xxxxxxxxxxxxx |xxxxxxxxxxxxx |xxxxxxxxxxxxx |xxxxxxxxxxxxx |       131141 |       131141 |       131141 |xxxxxxxxxxxxx |xxxxxxxxxxxxx |xxxxxxxxxxxxx |xxxxxxxxxxxxx |       262213 |       262213 |       262213 |xxxxxxxxxxxxx |xxxxxxxxxxxxx |xxxxxxxxxxxxx |xxxxxxxxxxxxx |       524357 |       524357 |       524357 |xxxxxxxxxxxxx |xxxxxxxxxxxxx |xxxxxxxxxxxxx |xxxxxxxxxxxxx |      1048648 |      1048648 |      1048648 |xxxxxxxxxxxxx |xxxxxxxxxxxxx |xxxxxxxxxxxxx |xxxxxxxxxxxxx |      2097224 |      2097224 |      2097224 |xxxxxxxxxxxxx |xxxxxxxxxxxxx |xxxxxxxxxxxxx |xxxxxxxxxxxxx |      4194376 |      4194376 |      4194376 |
bpred_bimod.ras_rate.PP                     1.0000 |       1.0000 |       1.0000 |xxxxxxxxxxxxx |xxxxxxxxxxxxx |xxxxxxxxxxxxx |xxxxxxxxxxxxx |       0.9999 |       0.9999 |       0.9999 |xxxxxxxxxxxxx |xxxxxxxxxxxxx |xxxxxxxxxxxxx |xxxxxxxxxxxxx |       0.9999 |       0.9999 |       0.9999 |xxxxxxxxxxxxx |xxxxxxxxxxxxx |xxxxxxxxxxxxx |xxxxxxxxxxxxx |       1.0000 |       1.0000 |       1.0000 |xxxxxxxxxxxxx |xxxxxxxxxxxxx |xxxxxxxxxxxxx |xxxxxxxxxxxxx |       1.0000 |       1.0000 |       1.0000 |xxxxxxxxxxxxx |xxxxxxxxxxxxx |xxxxxxxxxxxxx |xxxxxxxxxxxxx |       1.0000 |       1.0000 |       1.0000 |xxxxxxxxxxxxx |xxxxxxxxxxxxx |xxxxxxxxxxxxx |xxxxxxxxxxxxx |       1.0000 |       1.0000 |       1.0000 |xxxxxxxxxxxxx |xxxxxxxxxxxxx |xxxxxxxxxxxxx |xxxxxxxxxxxxx |       1.0000 |       1.0000 |       1.0000 |xxxxxxxxxxxxx |xxxxxxxxxxxxx |xxxxxxxxxxxxx |xxxxxxxxxxxxx |       1.0000 |       1.0000 |       1.0000 |xxxxxxxxxxxxx |xxxxxxxxxxxxx |xxxxxxxxxxxxx |xxxxxxxxxxxxx |       1.0000 |       1.0000 |       1.0000 |xxxxxxxxxxxxx |xxxxxxxxxxxxx |xxxxxxxxxxxxx |xxxxxxxxxxxxx |       1.0000 |       1.0000 |       1.0000 |
bpred_2lev.lookups                   xxxxxxxxxxxxx |xxxxxxxxxxxxx |xxxxxxxxxxxxx |       154999 |       154999 |       154999 |       154999 |xxxxxxxxxxxxx |xxxxxxxxxxxxx |xxxxxxxxxxxxx |       333833 |       333833 |       333833 |       333833 |xxxxxxxxxxxxx |xxxxxxxxxxxxx |xxxxxxxxxxxxx |       715437 |       715437 |       715437 |       715437 |xxxxxxxxxxxxx |xxxxxxxxxxxxx |xxxxxxxxxxxxx |      1526876 |      1526876 |      1526876 |      1526876 |xxxxxxxxxxxxx |xxxxxxxxxxxxx |xxxxxxxxxxxxx |      3252574 |      3252574 |      3252574 |      3252574 |xxxxxxxxxxxxx |xxxxxxxxxxxxx |xxxxxxxxxxxxx |      6893616 |      6893616 |      6893616 |      6893616 |xxxxxxxxxxxxx |xxxxxxxxxxxxx |xxxxxxxxxxxxx |     14581079 |     14581079 |     14581079 |     14581079 |xxxxxxxxxxxxx |xxxxxxxxxxxxx |xxxxxxxxxxxxx |     30711249 |     30711249 |     30711249 |     30711249 |xxxxxxxxxxxxx |xxxxxxxxxxxxx |xxxxxxxxxxxxx |     64607949 |     64607949 |     64607949 |     64607949 |xxxxxxxxxxxxx |xxxxxxxxxxxxx |xxxxxxxxxxxxx |    135421988 |    135421988 |    135421988 |    135421988 |xxxxxxxxxxxxx |xxxxxxxxxxxxx |xxxxxxxxxxxxx |    283583474 |    283583474 |    283583474 |    283583474 |
[...]
bpred_2lev.retstack_pops             xxxxxxxxxxxxx |xxxxxxxxxxxxx |xxxxxxxxxxxxx |         4157 |         4157 |         4157 |         4157 |xxxxxxxxxxxxx |xxxxxxxxxxxxx |xxxxxxxxxxxxx |         8262 |         8262 |         8262 |         8262 |xxxxxxxxxxxxx |xxxxxxxxxxxxx |xxxxxxxxxxxxx |        16454 |        16454 |        16454 |        16454 |xxxxxxxxxxxxx |xxxxxxxxxxxxx |xxxxxxxxxxxxx |        32838 |        32838 |        32838 |        32838 |xxxxxxxxxxxxx |xxxxxxxxxxxxx |xxxxxxxxxxxxx |        65606 |        65606 |        65606 |        65606 |xxxxxxxxxxxxx |xxxxxxxxxxxxx |xxxxxxxxxxxxx |       131142 |       131142 |       131142 |       131142 |xxxxxxxxxxxxx |xxxxxxxxxxxxx |xxxxxxxxxxxxx |       262214 |       262214 |       262214 |       262214 |xxxxxxxxxxxxx |xxxxxxxxxxxxx |xxxxxxxxxxxxx |       524358 |       524358 |       524358 |       524358 |xxxxxxxxxxxxx |xxxxxxxxxxxxx |xxxxxxxxxxxxx |      1048648 |      1048648 |      1048648 |      1048648 |xxxxxxxxxxxxx |xxxxxxxxxxxxx |xxxxxxxxxxxxx |      2097224 |      2097224 |      2097224 |      2097224 |xxxxxxxxxxxxx |xxxxxxxxxxxxx |xxxxxxxxxxxxx |      4194376 |      4194376 |      4194376 |      4194376 |
bpred_2lev.used_ras.PP               xxxxxxxxxxxxx |xxxxxxxxxxxxx |xxxxxxxxxxxxx |         4157 |         4157 |         4157 |         4157 |xxxxxxxxxxxxx |xxxxxxxxxxxxx |xxxxxxxxxxxxx |         8262 |         8262 |         8262 |         8262 |xxxxxxxxxxxxx |xxxxxxxxxxxxx |xxxxxxxxxxxxx |        16454 |        16454 |        16454 |        16454 |xxxxxxxxxxxxx |xxxxxxxxxxxxx |xxxxxxxxxxxxx |        32838 |        32838 |        32838 |        32838 |xxxxxxxxxxxxx |xxxxxxxxxxxxx |xxxxxxxxxxxxx |        65606 |        65606 |        65606 |        65606 |xxxxxxxxxxxxx |xxxxxxxxxxxxx |xxxxxxxxxxxxx |       131142 |       131142 |       131142 |       131142 |xxxxxxxxxxxxx |xxxxxxxxxxxxx |xxxxxxxxxxxxx |       262214 |       262214 |       262214 |       262214 |xxxxxxxxxxxxx |xxxxxxxxxxxxx |xxxxxxxxxxxxx |       524358 |       524358 |       524358 |       524358 |xxxxxxxxxxxxx |xxxxxxxxxxxxx |xxxxxxxxxxxxx |      1048648 |      1048648 |      1048648 |      1048648 |xxxxxxxxxxxxx |xxxxxxxxxxxxx |xxxxxxxxxxxxx |      2097224 |      2097224 |      2097224 |      2097224 |xxxxxxxxxxxxx |xxxxxxxxxxxxx |xxxxxxxxxxxxx |      4194376 |      4194376 |      4194376 |      4194376 |
bpred_2lev.ras_hits.PP               xxxxxxxxxxxxx |xxxxxxxxxxxxx |xxxxxxxxxxxxx |         4157 |         4157 |         4157 |         4157 |xxxxxxxxxxxxx |xxxxxxxxxxxxx |xxxxxxxxxxxxx |         8261 |         8261 |         8261 |         8261 |xxxxxxxxxxxxx |xxxxxxxxxxxxx |xxxxxxxxxxxxx |        16453 |        16453 |        16453 |        16453 |xxxxxxxxxxxxx |xxxxxxxxxxxxx |xxxxxxxxxxxxx |        32837 |        32837 |        32837 |        32837 |xxxxxxxxxxxxx |xxxxxxxxxxxxx |xxxxxxxxxxxxx |        65605 |        65605 |        65605 |        65605 |xxxxxxxxxxxxx |xxxxxxxxxxxxx |xxxxxxxxxxxxx |       131141 |       131141 |       131141 |       131141 |xxxxxxxxxxxxx |xxxxxxxxxxxxx |xxxxxxxxxxxxx |       262213 |       262213 |       262213 |       262213 |xxxxxxxxxxxxx |xxxxxxxxxxxxx |xxxxxxxxxxxxx |       524357 |       524357 |       524357 |       524357 |xxxxxxxxxxxxx |xxxxxxxxxxxxx |xxxxxxxxxxxxx |      1048648 |      1048648 |      1048648 |      1048648 |xxxxxxxxxxxxx |xxxxxxxxxxxxx |xxxxxxxxxxxxx |      2097224 |      2097224 |      2097224 |      2097224 |xxxxxxxxxxxxx |xxxxxxxxxxxxx |xxxxxxxxxxxxx |      4194376 |      4194376 |      4194376 |      4194376 |
bpred_2lev.ras_rate.PP               xxxxxxxxxxxxx |xxxxxxxxxxxxx |xxxxxxxxxxxxx |       1.0000 |       1.0000 |       1.0000 |       1.0000 |xxxxxxxxxxxxx |xxxxxxxxxxxxx |xxxxxxxxxxxxx |       0.9999 |       0.9999 |       0.9999 |       0.9999 |xxxxxxxxxxxxx |xxxxxxxxxxxxx |xxxxxxxxxxxxx |       0.9999 |       0.9999 |       0.9999 |       0.9999 |xxxxxxxxxxxxx |xxxxxxxxxxxxx |xxxxxxxxxxxxx |       1.0000 |       1.0000 |       1.0000 |       1.0000 |xxxxxxxxxxxxx |xxxxxxxxxxxxx |xxxxxxxxxxxxx |       1.0000 |       1.0000 |       1.0000 |       1.0000 |xxxxxxxxxxxxx |xxxxxxxxxxxxx |xxxxxxxxxxxxx |       1.0000 |       1.0000 |       1.0000 |       1.0000 |xxxxxxxxxxxxx |xxxxxxxxxxxxx |xxxxxxxxxxxxx |       1.0000 |       1.0000 |       1.0000 |       1.0000 |xxxxxxxxxxxxx |xxxxxxxxxxxxx |xxxxxxxxxxxxx |       1.0000 |       1.0000 |       1.0000 |       1.0000 |xxxxxxxxxxxxx |xxxxxxxxxxxxx |xxxxxxxxxxxxx |       1.0000 |       1.0000 |       1.0000 |       1.0000 |xxxxxxxxxxxxx |xxxxxxxxxxxxx |xxxxxxxxxxxxx |       1.0000 |       1.0000 |       1.0000 |       1.0000 |xxxxxxxxxxxxx |xxxxxxxxxxxxx |xxxxxxxxxxxxx |       1.0000 |       1.0000 |       1.0000 |       1.0000 |

Command list: 
	sslittle-na-sstrix-gcc -Wall -O3 -funroll-loops -finline-functions  -DRANDOM_SIZE=4096 -DOFFSET=4 -DSORT=memory_tuned4_heapsort sorts/memory_tuned4_heapsort877778238.c simpleMain.c -o memory_tuned4_heapsort324856144
	sim-cache -cache:dl1 dl1:512:16:1:l -cache:dl2 dl2:262144:16:1:l -cache:il1 il1:512:16:1:l -cache:il2 dl2 memory_tuned4_heapsort324856144
	sim-cache -cache:dl1 dl1:512:16:1:l -cache:dl2 dl2:131072:16:1:l -cache:il1 il1:512:16:1:l -cache:il2 dl2 memory_tuned4_heapsort324856144
	sim-cache -cache:dl1 dl1:1:16:512:l -cache:dl2 dl2:1:16:262144:l -cache:il1 il1:1:16:512:l -cache:il2 dl2 memory_tuned4_heapsort324856144
	sim-cache -cache:dl1 dl1:1:16:512:l -cache:dl2 dl2:1:16:131072:l -cache:il1 il1:1:16:512:l -cache:il2 dl2 memory_tuned4_heapsort324856144
	sim-bpred -bpred bimod -bpred:bimod 512 memory_tuned4_heapsort324856144
	sim-bpred -bpred bimod -bpred:bimod 1024 memory_tuned4_heapsort324856144
	sim-bpred -bpred bimod -bpred:bimod 2048 memory_tuned4_heapsort324856144
	sim-bpred -bpred 2lev -bpred:2lev 1 512 10 1 memory_tuned4_heapsort324856144
	sim-bpred -bpred 2lev -bpred:2lev 1 1024 10 1 memory_tuned4_heapsort324856144
	sim-bpred -bpred 2lev -bpred:2lev 1 2048 10 1 memory_tuned4_heapsort324856144
	sim-bpred -bpred 2lev -bpred:2lev 1 4096 10 1 memory_tuned4_heapsort324856144
	sslittle-na-sstrix-gcc -Wall -O3 -funroll-loops -finline-functions  -DRANDOM_SIZE=8192 -DOFFSET=4 -DSORT=memory_tuned4_heapsort sorts/memory_tuned4_heapsort877778238.c simpleMain.c -o memory_tuned4_heapsort324856144
	sim-cache -cache:dl1 dl1:512:16:1:l -cache:dl2 dl2:262144:16:1:l -cache:il1 il1:512:16:1:l -cache:il2 dl2 memory_tuned4_heapsort324856144
	sim-cache -cache:dl1 dl1:512:16:1:l -cache:dl2 dl2:131072:16:1:l -cache:il1 il1:512:16:1:l -cache:il2 dl2 memory_tuned4_heapsort324856144
	sim-cache -cache:dl1 dl1:1:16:512:l -cache:dl2 dl2:1:16:262144:l -cache:il1 il1:1:16:512:l -cache:il2 dl2 memory_tuned4_heapsort324856144
	sim-cache -cache:dl1 dl1:1:16:512:l -cache:dl2 dl2:1:16:131072:l -cache:il1 il1:1:16:512:l -cache:il2 dl2 memory_tuned4_heapsort324856144
	sim-bpred -bpred bimod -bpred:bimod 512 memory_tuned4_heapsort324856144
	sim-bpred -bpred bimod -bpred:bimod 1024 memory_tuned4_heapsort324856144
	sim-bpred -bpred bimod -bpred:bimod 2048 memory_tuned4_heapsort324856144
	sim-bpred -bpred 2lev -bpred:2lev 1 512 10 1 memory_tuned4_heapsort324856144
	sim-bpred -bpred 2lev -bpred:2lev 1 1024 10 1 memory_tuned4_heapsort324856144
	sim-bpred -bpred 2lev -bpred:2lev 1 2048 10 1 memory_tuned4_heapsort324856144
	sim-bpred -bpred 2lev -bpred:2lev 1 4096 10 1 memory_tuned4_heapsort324856144
	sslittle-na-sstrix-gcc -Wall -O3 -funroll-loops -finline-functions  -DRANDOM_SIZE=16384 -DOFFSET=4 -DSORT=memory_tuned4_heapsort sorts/memory_tuned4_heapsort877778238.c simpleMain.c -o memory_tuned4_heapsort324856144
	sim-cache -cache:dl1 dl1:512:16:1:l -cache:dl2 dl2:262144:16:1:l -cache:il1 il1:512:16:1:l -cache:il2 dl2 memory_tuned4_heapsort324856144
	sim-cache -cache:dl1 dl1:512:16:1:l -cache:dl2 dl2:131072:16:1:l -cache:il1 il1:512:16:1:l -cache:il2 dl2 memory_tuned4_heapsort324856144
	sim-cache -cache:dl1 dl1:1:16:512:l -cache:dl2 dl2:1:16:262144:l -cache:il1 il1:1:16:512:l -cache:il2 dl2 memory_tuned4_heapsort324856144
	sim-cache -cache:dl1 dl1:1:16:512:l -cache:dl2 dl2:1:16:131072:l -cache:il1 il1:1:16:512:l -cache:il2 dl2 memory_tuned4_heapsort324856144
	sim-bpred -bpred bimod -bpred:bimod 512 memory_tuned4_heapsort324856144
	sim-bpred -bpred bimod -bpred:bimod 1024 memory_tuned4_heapsort324856144
	sim-bpred -bpred bimod -bpred:bimod 2048 memory_tuned4_heapsort324856144
	sim-bpred -bpred 2lev -bpred:2lev 1 512 10 1 memory_tuned4_heapsort324856144
	sim-bpred -bpred 2lev -bpred:2lev 1 1024 10 1 memory_tuned4_heapsort324856144
	sim-bpred -bpred 2lev -bpred:2lev 1 2048 10 1 memory_tuned4_heapsort324856144
	sim-bpred -bpred 2lev -bpred:2lev 1 4096 10 1 memory_tuned4_heapsort324856144
	sslittle-na-sstrix-gcc -Wall -O3 -funroll-loops -finline-functions  -DRANDOM_SIZE=32768 -DOFFSET=4 -DSORT=memory_tuned4_heapsort sorts/memory_tuned4_heapsort877778238.c simpleMain.c -o memory_tuned4_heapsort324856144
	sim-cache -cache:dl1 dl1:512:16:1:l -cache:dl2 dl2:262144:16:1:l -cache:il1 il1:512:16:1:l -cache:il2 dl2 memory_tuned4_heapsort324856144
	sim-cache -cache:dl1 dl1:512:16:1:l -cache:dl2 dl2:131072:16:1:l -cache:il1 il1:512:16:1:l -cache:il2 dl2 memory_tuned4_heapsort324856144
	sim-cache -cache:dl1 dl1:1:16:512:l -cache:dl2 dl2:1:16:262144:l -cache:il1 il1:1:16:512:l -cache:il2 dl2 memory_tuned4_heapsort324856144
	sim-cache -cache:dl1 dl1:1:16:512:l -cache:dl2 dl2:1:16:131072:l -cache:il1 il1:1:16:512:l -cache:il2 dl2 memory_tuned4_heapsort324856144
	sim-bpred -bpred bimod -bpred:bimod 512 memory_tuned4_heapsort324856144
	sim-bpred -bpred bimod -bpred:bimod 1024 memory_tuned4_heapsort324856144
	sim-bpred -bpred bimod -bpred:bimod 2048 memory_tuned4_heapsort324856144
	sim-bpred -bpred 2lev -bpred:2lev 1 512 10 1 memory_tuned4_heapsort324856144
	sim-bpred -bpred 2lev -bpred:2lev 1 1024 10 1 memory_tuned4_heapsort324856144
	sim-bpred -bpred 2lev -bpred:2lev 1 2048 10 1 memory_tuned4_heapsort324856144
	sim-bpred -bpred 2lev -bpred:2lev 1 4096 10 1 memory_tuned4_heapsort324856144
	sslittle-na-sstrix-gcc -Wall -O3 -funroll-loops -finline-functions  -DRANDOM_SIZE=65536 -DOFFSET=4 -DSORT=memory_tuned4_heapsort sorts/memory_tuned4_heapsort877778238.c simpleMain.c -o memory_tuned4_heapsort324856144
	sim-cache -cache:dl1 dl1:512:16:1:l -cache:dl2 dl2:262144:16:1:l -cache:il1 il1:512:16:1:l -cache:il2 dl2 memory_tuned4_heapsort324856144
	sim-cache -cache:dl1 dl1:512:16:1:l -cache:dl2 dl2:131072:16:1:l -cache:il1 il1:512:16:1:l -cache:il2 dl2 memory_tuned4_heapsort324856144
	sim-cache -cache:dl1 dl1:1:16:512:l -cache:dl2 dl2:1:16:262144:l -cache:il1 il1:1:16:512:l -cache:il2 dl2 memory_tuned4_heapsort324856144
	sim-cache -cache:dl1 dl1:1:16:512:l -cache:dl2 dl2:1:16:131072:l -cache:il1 il1:1:16:512:l -cache:il2 dl2 memory_tuned4_heapsort324856144
	sim-bpred -bpred bimod -bpred:bimod 512 memory_tuned4_heapsort324856144
	sim-bpred -bpred bimod -bpred:bimod 1024 memory_tuned4_heapsort324856144
	sim-bpred -bpred bimod -bpred:bimod 2048 memory_tuned4_heapsort324856144
	sim-bpred -bpred 2lev -bpred:2lev 1 512 10 1 memory_tuned4_heapsort324856144
	sim-bpred -bpred 2lev -bpred:2lev 1 1024 10 1 memory_tuned4_heapsort324856144
	sim-bpred -bpred 2lev -bpred:2lev 1 2048 10 1 memory_tuned4_heapsort324856144
	sim-bpred -bpred 2lev -bpred:2lev 1 4096 10 1 memory_tuned4_heapsort324856144
	sslittle-na-sstrix-gcc -Wall -O3 -funroll-loops -finline-functions  -DRANDOM_SIZE=131072 -DOFFSET=4 -DSORT=memory_tuned4_heapsort sorts/memory_tuned4_heapsort877778238.c simpleMain.c -o memory_tuned4_heapsort324856144
	sim-cache -cache:dl1 dl1:512:16:1:l -cache:dl2 dl2:262144:16:1:l -cache:il1 il1:512:16:1:l -cache:il2 dl2 memory_tuned4_heapsort324856144
	sim-cache -cache:dl1 dl1:512:16:1:l -cache:dl2 dl2:131072:16:1:l -cache:il1 il1:512:16:1:l -cache:il2 dl2 memory_tuned4_heapsort324856144
	sim-cache -cache:dl1 dl1:1:16:512:l -cache:dl2 dl2:1:16:262144:l -cache:il1 il1:1:16:512:l -cache:il2 dl2 memory_tuned4_heapsort324856144
	sim-cache -cache:dl1 dl1:1:16:512:l -cache:dl2 dl2:1:16:131072:l -cache:il1 il1:1:16:512:l -cache:il2 dl2 memory_tuned4_heapsort324856144
	sim-bpred -bpred bimod -bpred:bimod 512 memory_tuned4_heapsort324856144
	sim-bpred -bpred bimod -bpred:bimod 1024 memory_tuned4_heapsort324856144
	sim-bpred -bpred bimod -bpred:bimod 2048 memory_tuned4_heapsort324856144
	sim-bpred -bpred 2lev -bpred:2lev 1 512 10 1 memory_tuned4_heapsort324856144
	sim-bpred -bpred 2lev -bpred:2lev 1 1024 10 1 memory_tuned4_heapsort324856144
	sim-bpred -bpred 2lev -bpred:2lev 1 2048 10 1 memory_tuned4_heapsort324856144
	sim-bpred -bpred 2lev -bpred:2lev 1 4096 10 1 memory_tuned4_heapsort324856144
	sslittle-na-sstrix-gcc -Wall -O3 -funroll-loops -finline-functions  -DRANDOM_SIZE=262144 -DOFFSET=4 -DSORT=memory_tuned4_heapsort sorts/memory_tuned4_heapsort877778238.c simpleMain.c -o memory_tuned4_heapsort324856144
	sim-cache -cache:dl1 dl1:512:16:1:l -cache:dl2 dl2:262144:16:1:l -cache:il1 il1:512:16:1:l -cache:il2 dl2 memory_tuned4_heapsort324856144
	sim-cache -cache:dl1 dl1:512:16:1:l -cache:dl2 dl2:131072:16:1:l -cache:il1 il1:512:16:1:l -cache:il2 dl2 memory_tuned4_heapsort324856144
	sim-cache -cache:dl1 dl1:1:16:512:l -cache:dl2 dl2:1:16:262144:l -cache:il1 il1:1:16:512:l -cache:il2 dl2 memory_tuned4_heapsort324856144
	sim-cache -cache:dl1 dl1:1:16:512:l -cache:dl2 dl2:1:16:131072:l -cache:il1 il1:1:16:512:l -cache:il2 dl2 memory_tuned4_heapsort324856144
	sim-bpred -bpred bimod -bpred:bimod 512 memory_tuned4_heapsort324856144
	sim-bpred -bpred bimod -bpred:bimod 1024 memory_tuned4_heapsort324856144
	sim-bpred -bpred bimod -bpred:bimod 2048 memory_tuned4_heapsort324856144
	sim-bpred -bpred 2lev -bpred:2lev 1 512 10 1 memory_tuned4_heapsort324856144
	sim-bpred -bpred 2lev -bpred:2lev 1 1024 10 1 memory_tuned4_heapsort324856144
	sim-bpred -bpred 2lev -bpred:2lev 1 2048 10 1 memory_tuned4_heapsort324856144
	sim-bpred -bpred 2lev -bpred:2lev 1 4096 10 1 memory_tuned4_heapsort324856144
	sslittle-na-sstrix-gcc -Wall -O3 -funroll-loops -finline-functions  -DRANDOM_SIZE=524288 -DOFFSET=4 -DSORT=memory_tuned4_heapsort sorts/memory_tuned4_heapsort877778238.c simpleMain.c -o memory_tuned4_heapsort324856144
	sim-cache -cache:dl1 dl1:512:16:1:l -cache:dl2 dl2:262144:16:1:l -cache:il1 il1:512:16:1:l -cache:il2 dl2 memory_tuned4_heapsort324856144
	sim-cache -cache:dl1 dl1:512:16:1:l -cache:dl2 dl2:131072:16:1:l -cache:il1 il1:512:16:1:l -cache:il2 dl2 memory_tuned4_heapsort324856144
	sim-cache -cache:dl1 dl1:1:16:512:l -cache:dl2 dl2:1:16:262144:l -cache:il1 il1:1:16:512:l -cache:il2 dl2 memory_tuned4_heapsort324856144
	sim-cache -cache:dl1 dl1:1:16:512:l -cache:dl2 dl2:1:16:131072:l -cache:il1 il1:1:16:512:l -cache:il2 dl2 memory_tuned4_heapsort324856144
	sim-bpred -bpred bimod -bpred:bimod 512 memory_tuned4_heapsort324856144
	sim-bpred -bpred bimod -bpred:bimod 1024 memory_tuned4_heapsort324856144
	sim-bpred -bpred bimod -bpred:bimod 2048 memory_tuned4_heapsort324856144
	sim-bpred -bpred 2lev -bpred:2lev 1 512 10 1 memory_tuned4_heapsort324856144
	sim-bpred -bpred 2lev -bpred:2lev 1 1024 10 1 memory_tuned4_heapsort324856144
	sim-bpred -bpred 2lev -bpred:2lev 1 2048 10 1 memory_tuned4_heapsort324856144
	sim-bpred -bpred 2lev -bpred:2lev 1 4096 10 1 memory_tuned4_heapsort324856144
	sslittle-na-sstrix-gcc -Wall -O3 -funroll-loops -finline-functions  -DRANDOM_SIZE=1048576 -DOFFSET=4 -DSORT=memory_tuned4_heapsort sorts/memory_tuned4_heapsort877778238.c simpleMain.c -o memory_tuned4_heapsort324856144
	sim-cache -cache:dl1 dl1:512:16:1:l -cache:dl2 dl2:262144:16:1:l -cache:il1 il1:512:16:1:l -cache:il2 dl2 memory_tuned4_heapsort324856144
	sim-cache -cache:dl1 dl1:512:16:1:l -cache:dl2 dl2:131072:16:1:l -cache:il1 il1:512:16:1:l -cache:il2 dl2 memory_tuned4_heapsort324856144
	sim-cache -cache:dl1 dl1:1:16:512:l -cache:dl2 dl2:1:16:262144:l -cache:il1 il1:1:16:512:l -cache:il2 dl2 memory_tuned4_heapsort324856144
	sim-cache -cache:dl1 dl1:1:16:512:l -cache:dl2 dl2:1:16:131072:l -cache:il1 il1:1:16:512:l -cache:il2 dl2 memory_tuned4_heapsort324856144
	sim-bpred -bpred bimod -bpred:bimod 512 memory_tuned4_heapsort324856144
	sim-bpred -bpred bimod -bpred:bimod 1024 memory_tuned4_heapsort324856144
	sim-bpred -bpred bimod -bpred:bimod 2048 memory_tuned4_heapsort324856144
	sim-bpred -bpred 2lev -bpred:2lev 1 512 10 1 memory_tuned4_heapsort324856144
	sim-bpred -bpred 2lev -bpred:2lev 1 1024 10 1 memory_tuned4_heapsort324856144
	sim-bpred -bpred 2lev -bpred:2lev 1 2048 10 1 memory_tuned4_heapsort324856144
	sim-bpred -bpred 2lev -bpred:2lev 1 4096 10 1 memory_tuned4_heapsort324856144
	sslittle-na-sstrix-gcc -Wall -O3 -funroll-loops -finline-functions  -DRANDOM_SIZE=2097152 -DOFFSET=4 -DSORT=memory_tuned4_heapsort sorts/memory_tuned4_heapsort877778238.c simpleMain.c -o memory_tuned4_heapsort324856144
	sim-cache -cache:dl1 dl1:512:16:1:l -cache:dl2 dl2:262144:16:1:l -cache:il1 il1:512:16:1:l -cache:il2 dl2 memory_tuned4_heapsort324856144
	sim-cache -cache:dl1 dl1:512:16:1:l -cache:dl2 dl2:131072:16:1:l -cache:il1 il1:512:16:1:l -cache:il2 dl2 memory_tuned4_heapsort324856144
	sim-cache -cache:dl1 dl1:1:16:512:l -cache:dl2 dl2:1:16:262144:l -cache:il1 il1:1:16:512:l -cache:il2 dl2 memory_tuned4_heapsort324856144
	sim-cache -cache:dl1 dl1:1:16:512:l -cache:dl2 dl2:1:16:131072:l -cache:il1 il1:1:16:512:l -cache:il2 dl2 memory_tuned4_heapsort324856144
	sim-bpred -bpred bimod -bpred:bimod 512 memory_tuned4_heapsort324856144
	sim-bpred -bpred bimod -bpred:bimod 1024 memory_tuned4_heapsort324856144
	sim-bpred -bpred bimod -bpred:bimod 2048 memory_tuned4_heapsort324856144
	sim-bpred -bpred 2lev -bpred:2lev 1 512 10 1 memory_tuned4_heapsort324856144
	sim-bpred -bpred 2lev -bpred:2lev 1 1024 10 1 memory_tuned4_heapsort324856144
	sim-bpred -bpred 2lev -bpred:2lev 1 2048 10 1 memory_tuned4_heapsort324856144
	sim-bpred -bpred 2lev -bpred:2lev 1 4096 10 1 memory_tuned4_heapsort324856144
	sslittle-na-sstrix-gcc -Wall -O3 -funroll-loops -finline-functions  -DRANDOM_SIZE=4194304 -DOFFSET=4 -DSORT=memory_tuned4_heapsort sorts/memory_tuned4_heapsort877778238.c simpleMain.c -o memory_tuned4_heapsort324856144
	sim-cache -cache:dl1 dl1:512:16:1:l -cache:dl2 dl2:262144:16:1:l -cache:il1 il1:512:16:1:l -cache:il2 dl2 memory_tuned4_heapsort324856144
	sim-cache -cache:dl1 dl1:512:16:1:l -cache:dl2 dl2:131072:16:1:l -cache:il1 il1:512:16:1:l -cache:il2 dl2 memory_tuned4_heapsort324856144
	sim-cache -cache:dl1 dl1:1:16:512:l -cache:dl2 dl2:1:16:262144:l -cache:il1 il1:1:16:512:l -cache:il2 dl2 memory_tuned4_heapsort324856144
	sim-cache -cache:dl1 dl1:1:16:512:l -cache:dl2 dl2:1:16:131072:l -cache:il1 il1:1:16:512:l -cache:il2 dl2 memory_tuned4_heapsort324856144
	sim-bpred -bpred bimod -bpred:bimod 512 memory_tuned4_heapsort324856144
	sim-bpred -bpred bimod -bpred:bimod 1024 memory_tuned4_heapsort324856144
	sim-bpred -bpred bimod -bpred:bimod 2048 memory_tuned4_heapsort324856144
	sim-bpred -bpred 2lev -bpred:2lev 1 512 10 1 memory_tuned4_heapsort324856144
	sim-bpred -bpred 2lev -bpred:2lev 1 1024 10 1 memory_tuned4_heapsort324856144
	sim-bpred -bpred 2lev -bpred:2lev 1 2048 10 1 memory_tuned4_heapsort324856144
	sim-bpred -bpred 2lev -bpred:2lev 1 4096 10 1 memory_tuned4_heapsort324856144
