Thu Jul  7 16:43:03 2005
Run as: "./do_simple -c random.org4 -o 4 memory_tuned_radixsort"
-------------------------------------------------------------------------------------------------
sim-cache                                     4096 |         4096 |         4096 |         4096 |         8192 |         8192 |         8192 |         8192 |        16384 |        16384 |        16384 |        16384 |        32768 |        32768 |        32768 |        32768 |        65536 |        65536 |        65536 |        65536 |       131072 |       131072 |       131072 |       131072 |       262144 |       262144 |       262144 |       262144 |       524288 |       524288 |       524288 |       524288 |      1048576 |      1048576 |      1048576 |      1048576 |      2097152 |      2097152 |      2097152 |      2097152 |      4194304 |      4194304 |      4194304 |      4194304 |
-cache:dl1 dl1:256:32:1:l -cache:dl2 dl2:131072:32:1:l -cache:il1 il1:256:32:1:l -cache:il2 dl2
-cache:dl1 dl1:256:32:1:l -cache:dl2 dl2:65536:32:1:l -cache:il1 il1:256:32:1:l -cache:il2 dl2
-cache:dl1 dl1:1:32:256:l -cache:dl2 dl2:1:32:131072:l -cache:il1 il1:1:32:256:l -cache:il2 dl2
-cache:dl1 dl1:1:32:256:l -cache:dl2 dl2:1:32:65536:l -cache:il1 il1:1:32:256:l -cache:il2 dl2
-------------------------------------------------------------------------------------------------
sim_num_insn                                378645 |       378645 |       378645 |       378645 |       744355 |       744355 |       744355 |       744355 |      1475493 |      1475493 |      1475493 |      1475493 |      2937766 |      2937766 |      2937766 |      2937766 |      5862310 |      5862310 |      5862310 |      5862310 |     11711399 |     11711399 |     11711399 |     11711399 |     23409575 |     23409575 |     23409575 |     23409575 |     46805927 |     46805927 |     46805927 |     46805927 |     93611107 |     93611107 |     93611107 |     93611107 |    187205739 |    187205739 |    187205739 |    187205739 |    374394995 |    374394995 |    374394995 |    374394995 |
sim_num_refs                                138910 |       138910 |       138910 |       138910 |       270026 |       270026 |       270026 |       270026 |       532170 |       532170 |       532170 |       532170 |      1056458 |      1056458 |      1056458 |      1056458 |      2105034 |      2105034 |      2105034 |      2105034 |      4202186 |      4202186 |      4202186 |      4202186 |      8396490 |      8396490 |      8396490 |      8396490 |     16785098 |     16785098 |     16785098 |     16785098 |     33571576 |     33571576 |     33571576 |     33571576 |     67132152 |     67132152 |     67132152 |     67132152 |    134253304 |    134253304 |    134253304 |    134253304 |
sim_elapsed_time                                 1 |            1 |           10 |            5 |            1 |            1 |           15 |            8 |            1 |            1 |           27 |           13 |            1 |            1 |           47 |           23 |            2 |            2 |           87 |           42 |            4 |            4 |          160 |           71 |            8 |            8 |          273 |           97 |           16 |           15 |          367 |          105 |           31 |           32 |          382 |          121 |           62 |           64 |          416 |          159 |          140 |          140 |          541 |          227 |
sim_inst_rate                          378645.0000 |  378645.0000 |   37864.5000 |   75729.0000 |  744355.0000 |  744355.0000 |   49623.6667 |   93044.3750 | 1475493.0000 | 1475493.0000 |   54647.8889 |  113499.4615 | 2937766.0000 | 2937766.0000 |   62505.6596 |  127728.9565 | 2931155.0000 | 2931155.0000 |   67382.8736 |  139578.8095 | 2927849.7500 | 2927849.7500 |   73196.2437 |  164949.2817 | 2926196.8750 | 2926196.8750 |   85749.3590 |  241335.8247 | 2925370.4375 | 3120395.1333 |  127536.5858 |  445770.7333 | 3019713.1290 | 2925347.0938 |  245055.2539 |  773645.5124 | 3019447.4032 | 2925089.6719 |  450013.7957 | 1177394.5849 | 2674249.9643 | 2674249.9643 |  692042.5046 | 1649317.1586 |
il1.accesses                                378645 |       378645 |       378645 |       378645 |       744355 |       744355 |       744355 |       744355 |      1475493 |      1475493 |      1475493 |      1475493 |      2937766 |      2937766 |      2937766 |      2937766 |      5862310 |      5862310 |      5862310 |      5862310 |     11711399 |     11711399 |     11711399 |     11711399 |     23409575 |     23409575 |     23409575 |     23409575 |     46805927 |     46805927 |     46805927 |     46805927 |     93611107 |     93611107 |     93611107 |     93611107 |    187205739 |    187205739 |    187205739 |    187205739 |    374394995 |    374394995 |    374394995 |    374394995 |
il1.hits                                    378187 |       378187 |       378243 |       378243 |       743876 |       743876 |       743933 |       743933 |      1475030 |      1475030 |      1475107 |      1475107 |      2937286 |      2937286 |      2937342 |      2937342 |      5861830 |      5861830 |      5861886 |      5861886 |     11710919 |     11710919 |     11710975 |     11710975 |     23409095 |     23409095 |     23409151 |     23409151 |     46805447 |     46805447 |     46805503 |     46805503 |     93610581 |     93610581 |     93610648 |     93610648 |    187205213 |    187205213 |    187205280 |    187205280 |    374394469 |    374394469 |    374394536 |    374394536 |
il1.misses                                     458 |          458 |          402 |          402 |          479 |          479 |          422 |          422 |          463 |          463 |          386 |          386 |          480 |          480 |          424 |          424 |          480 |          480 |          424 |          424 |          480 |          480 |          424 |          424 |          480 |          480 |          424 |          424 |          480 |          480 |          424 |          424 |          526 |          526 |          459 |          459 |          526 |          526 |          459 |          459 |          526 |          526 |          459 |          459 |
il1.replacements                               254 |          254 |          146 |          146 |          271 |          271 |          166 |          166 |          258 |          258 |          130 |          130 |          273 |          273 |          168 |          168 |          273 |          273 |          168 |          168 |          273 |          273 |          168 |          168 |          273 |          273 |          168 |          168 |          273 |          273 |          168 |          168 |          309 |          309 |          203 |          203 |          309 |          309 |          203 |          203 |          309 |          309 |          203 |          203 |
il1.writebacks                                   0 |            0 |            0 |            0 |            0 |            0 |            0 |            0 |            0 |            0 |            0 |            0 |            0 |            0 |            0 |            0 |            0 |            0 |            0 |            0 |            0 |            0 |            0 |            0 |            0 |            0 |            0 |            0 |            0 |            0 |            0 |            0 |            0 |            0 |            0 |            0 |            0 |            0 |            0 |            0 |            0 |            0 |            0 |            0 |
il1.invalidations                                0 |            0 |            0 |            0 |            0 |            0 |            0 |            0 |            0 |            0 |            0 |            0 |            0 |            0 |            0 |            0 |            0 |            0 |            0 |            0 |            0 |            0 |            0 |            0 |            0 |            0 |            0 |            0 |            0 |            0 |            0 |            0 |            0 |            0 |            0 |            0 |            0 |            0 |            0 |            0 |            0 |            0 |            0 |            0 |
il1.miss_rate                               0.0012 |       0.0012 |       0.0011 |       0.0011 |       0.0006 |       0.0006 |       0.0006 |       0.0006 |       0.0003 |       0.0003 |       0.0003 |       0.0003 |       0.0002 |       0.0002 |       0.0001 |       0.0001 |       0.0001 |       0.0001 |       0.0001 |       0.0001 |       0.0000 |       0.0000 |       0.0000 |       0.0000 |       0.0000 |       0.0000 |       0.0000 |       0.0000 |       0.0000 |       0.0000 |       0.0000 |       0.0000 |       0.0000 |       0.0000 |       0.0000 |       0.0000 |       0.0000 |       0.0000 |       0.0000 |       0.0000 |       0.0000 |       0.0000 |       0.0000 |       0.0000 |
il1.repl_rate                               0.0007 |       0.0007 |       0.0004 |       0.0004 |       0.0004 |       0.0004 |       0.0002 |       0.0002 |       0.0002 |       0.0002 |       0.0001 |       0.0001 |       0.0001 |       0.0001 |       0.0001 |       0.0001 |       0.0000 |       0.0000 |       0.0000 |       0.0000 |       0.0000 |       0.0000 |       0.0000 |       0.0000 |       0.0000 |       0.0000 |       0.0000 |       0.0000 |       0.0000 |       0.0000 |       0.0000 |       0.0000 |       0.0000 |       0.0000 |       0.0000 |       0.0000 |       0.0000 |       0.0000 |       0.0000 |       0.0000 |       0.0000 |       0.0000 |       0.0000 |       0.0000 |
il1.wb_rate                                 0.0000 |       0.0000 |       0.0000 |       0.0000 |       0.0000 |       0.0000 |       0.0000 |       0.0000 |       0.0000 |       0.0000 |       0.0000 |       0.0000 |       0.0000 |       0.0000 |       0.0000 |       0.0000 |       0.0000 |       0.0000 |       0.0000 |       0.0000 |       0.0000 |       0.0000 |       0.0000 |       0.0000 |       0.0000 |       0.0000 |       0.0000 |       0.0000 |       0.0000 |       0.0000 |       0.0000 |       0.0000 |       0.0000 |       0.0000 |       0.0000 |       0.0000 |       0.0000 |       0.0000 |       0.0000 |       0.0000 |       0.0000 |       0.0000 |       0.0000 |       0.0000 |
il1.inv_rate                                0.0000 |       0.0000 |       0.0000 |       0.0000 |       0.0000 |       0.0000 |       0.0000 |       0.0000 |       0.0000 |       0.0000 |       0.0000 |       0.0000 |       0.0000 |       0.0000 |       0.0000 |       0.0000 |       0.0000 |       0.0000 |       0.0000 |       0.0000 |       0.0000 |       0.0000 |       0.0000 |       0.0000 |       0.0000 |       0.0000 |       0.0000 |       0.0000 |       0.0000 |       0.0000 |       0.0000 |       0.0000 |       0.0000 |       0.0000 |       0.0000 |       0.0000 |       0.0000 |       0.0000 |       0.0000 |       0.0000 |       0.0000 |       0.0000 |       0.0000 |       0.0000 |
dl1.accesses                                155376 |       155376 |       155376 |       155376 |       302876 |       302876 |       302876 |       302876 |       597788 |       597788 |       597788 |       597788 |      1187612 |      1187612 |      1187612 |      1187612 |      2367260 |      2367260 |      2367260 |      2367260 |      4726556 |      4726556 |      4726556 |      4726556 |      9445148 |      9445148 |      9445148 |      9445148 |     18882332 |     18882332 |     18882332 |     18882332 |     37765962 |     37765962 |     37765962 |     37765962 |     75520842 |     75520842 |     75520842 |     75520842 |    151030602 |    151030602 |    151030602 |    151030602 |
dl1.hits                                    138980 |       138980 |       144025 |       144025 |       269378 |       269378 |       280854 |       280854 |       531662 |       531662 |       554252 |       554252 |      1054353 |      1054353 |      1101191 |      1101191 |      2099979 |      2099979 |      2195357 |      2195357 |      4162375 |      4162375 |      4383505 |      4383505 |      8253841 |      8253841 |      8759700 |      8759700 |     16450868 |     16450868 |     17511980 |     17511980 |     33079679 |     33079679 |     35025052 |     35025052 |     66536944 |     66536944 |     70040251 |     70040251 |    133494970 |    133494970 |    140068324 |    140068324 |
dl1.misses                                   16396 |        16396 |        11351 |        11351 |        33498 |        33498 |        22022 |        22022 |        66126 |        66126 |        43536 |        43536 |       133259 |       133259 |        86421 |        86421 |       267281 |       267281 |       171903 |       171903 |       564181 |       564181 |       343051 |       343051 |      1191307 |      1191307 |       685448 |       685448 |      2431464 |      2431464 |      1370352 |      1370352 |      4686283 |      4686283 |      2740910 |      2740910 |      8983898 |      8983898 |      5480591 |      5480591 |     17535632 |     17535632 |     10962278 |     10962278 |
dl1.replacements                             16140 |        16140 |        11095 |        11095 |        33242 |        33242 |        21766 |        21766 |        65870 |        65870 |        43280 |        43280 |       133003 |       133003 |        86165 |        86165 |       267025 |       267025 |       171647 |       171647 |       563925 |       563925 |       342795 |       342795 |      1191051 |      1191051 |       685192 |       685192 |      2431208 |      2431208 |      1370096 |      1370096 |      4686027 |      4686027 |      2740654 |      2740654 |      8983642 |      8983642 |      5480335 |      5480335 |     17535376 |     17535376 |     10962022 |     10962022 |
dl1.writebacks                               13504 |        13504 |         8582 |         8582 |        27850 |        27850 |        16673 |        16673 |        55002 |        55002 |        33057 |        33057 |       111155 |       111155 |        65700 |        65700 |       223264 |       223264 |       130702 |       130702 |       476275 |       476275 |       260894 |       260894 |      1015652 |      1015652 |       521370 |       521370 |      2080301 |      2080301 |      1042432 |      1042432 |      3984065 |      3984065 |      2084922 |      2084922 |      7579863 |      7579863 |      4169243 |      4169243 |     14727617 |     14727617 |      8340211 |      8340211 |
dl1.invalidations                                0 |            0 |            0 |            0 |            0 |            0 |            0 |            0 |            0 |            0 |            0 |            0 |            0 |            0 |            0 |            0 |            0 |            0 |            0 |            0 |            0 |            0 |            0 |            0 |            0 |            0 |            0 |            0 |            0 |            0 |            0 |            0 |            0 |            0 |            0 |            0 |            0 |            0 |            0 |            0 |            0 |            0 |            0 |            0 |
dl1.miss_rate                               0.1055 |       0.1055 |       0.0731 |       0.0731 |       0.1106 |       0.1106 |       0.0727 |       0.0727 |       0.1106 |       0.1106 |       0.0728 |       0.0728 |       0.1122 |       0.1122 |       0.0728 |       0.0728 |       0.1129 |       0.1129 |       0.0726 |       0.0726 |       0.1194 |       0.1194 |       0.0726 |       0.0726 |       0.1261 |       0.1261 |       0.0726 |       0.0726 |       0.1288 |       0.1288 |       0.0726 |       0.0726 |       0.1241 |       0.1241 |       0.0726 |       0.0726 |       0.1190 |       0.1190 |       0.0726 |       0.0726 |       0.1161 |       0.1161 |       0.0726 |       0.0726 |
dl1.repl_rate                               0.1039 |       0.1039 |       0.0714 |       0.0714 |       0.1098 |       0.1098 |       0.0719 |       0.0719 |       0.1102 |       0.1102 |       0.0724 |       0.0724 |       0.1120 |       0.1120 |       0.0726 |       0.0726 |       0.1128 |       0.1128 |       0.0725 |       0.0725 |       0.1193 |       0.1193 |       0.0725 |       0.0725 |       0.1261 |       0.1261 |       0.0725 |       0.0725 |       0.1288 |       0.1288 |       0.0726 |       0.0726 |       0.1241 |       0.1241 |       0.0726 |       0.0726 |       0.1190 |       0.1190 |       0.0726 |       0.0726 |       0.1161 |       0.1161 |       0.0726 |       0.0726 |
dl1.wb_rate                                 0.0869 |       0.0869 |       0.0552 |       0.0552 |       0.0920 |       0.0920 |       0.0550 |       0.0550 |       0.0920 |       0.0920 |       0.0553 |       0.0553 |       0.0936 |       0.0936 |       0.0553 |       0.0553 |       0.0943 |       0.0943 |       0.0552 |       0.0552 |       0.1008 |       0.1008 |       0.0552 |       0.0552 |       0.1075 |       0.1075 |       0.0552 |       0.0552 |       0.1102 |       0.1102 |       0.0552 |       0.0552 |       0.1055 |       0.1055 |       0.0552 |       0.0552 |       0.1004 |       0.1004 |       0.0552 |       0.0552 |       0.0975 |       0.0975 |       0.0552 |       0.0552 |
dl1.inv_rate                                0.0000 |       0.0000 |       0.0000 |       0.0000 |       0.0000 |       0.0000 |       0.0000 |       0.0000 |       0.0000 |       0.0000 |       0.0000 |       0.0000 |       0.0000 |       0.0000 |       0.0000 |       0.0000 |       0.0000 |       0.0000 |       0.0000 |       0.0000 |       0.0000 |       0.0000 |       0.0000 |       0.0000 |       0.0000 |       0.0000 |       0.0000 |       0.0000 |       0.0000 |       0.0000 |       0.0000 |       0.0000 |       0.0000 |       0.0000 |       0.0000 |       0.0000 |       0.0000 |       0.0000 |       0.0000 |       0.0000 |       0.0000 |       0.0000 |       0.0000 |       0.0000 |
dl2.accesses                                 30358 |        30358 |        20335 |        20335 |        61827 |        61827 |        39117 |        39117 |       121591 |       121591 |        76979 |        76979 |       244894 |       244894 |       152545 |       152545 |       491025 |       491025 |       303029 |       303029 |      1040936 |      1040936 |       604369 |       604369 |      2207439 |      2207439 |      1207242 |      1207242 |      4512245 |      4512245 |      2413208 |      2413208 |      8670874 |      8670874 |      4826291 |      4826291 |     16564287 |     16564287 |      9650293 |      9650293 |     32263775 |     32263775 |     19302948 |     19302948 |
dl2.hits                                     28444 |        28444 |        18437 |        18437 |        58886 |        58886 |        36205 |        36205 |       116607 |       116607 |        72023 |        72023 |       235803 |       235803 |       143487 |       143487 |       473740 |       473740 |       285779 |       285779 |      1007267 |      1007267 |       570735 |       570735 |      2141002 |      2128958 |      1140840 |      1138432 |      4368229 |      4050135 |      2278343 |      1815789 |      7787310 |      7376962 |      3632601 |      3539427 |     13979449 |     13885061 |      7078420 |      7037725 |     26948797 |     26769602 |     14079993 |     14060827 |
dl2.misses                                    1914 |         1914 |         1898 |         1898 |         2941 |         2941 |         2912 |         2912 |         4984 |         4984 |         4956 |         4956 |         9091 |         9091 |         9058 |         9058 |        17285 |        17285 |        17250 |        17250 |        33669 |        33669 |        33634 |        33634 |        66437 |        78481 |        66402 |        68810 |       144016 |       462110 |       134865 |       597419 |       883564 |      1293912 |      1193690 |      1286864 |      2584838 |      2679226 |      2571873 |      2612568 |      5314978 |      5494173 |      5222955 |      5242121 |
dl2.replacements                               236 |          236 |            0 |            0 |          250 |          250 |            0 |            0 |          265 |          265 |            0 |            0 |          275 |          275 |            0 |            0 |          277 |          277 |            0 |            0 |          277 |          277 |            0 |            0 |          277 |        14057 |            0 |         3274 |        14056 |       396574 |         3793 |       531883 |       752492 |      1228376 |      1062618 |      1221328 |      2453766 |      2613690 |      2440801 |      2547032 |      5183906 |      5428637 |      5091883 |      5176585 |
dl2.writebacks                                 158 |          158 |            0 |            0 |          156 |          156 |            0 |            0 |          170 |          170 |            0 |            0 |          178 |          178 |            0 |            0 |          178 |          178 |            0 |            0 |          178 |          178 |            0 |            0 |          178 |        10573 |            0 |         3046 |        10565 |       300392 |         3566 |       296259 |       596169 |       650090 |       591903 |       624719 |      1298891 |      1372861 |      1248069 |      1280930 |      2704882 |      2869490 |      2560342 |      2593267 |
dl2.invalidations                                0 |            0 |            0 |            0 |            0 |            0 |            0 |            0 |            0 |            0 |            0 |            0 |            0 |            0 |            0 |            0 |            0 |            0 |            0 |            0 |            0 |            0 |            0 |            0 |            0 |            0 |            0 |            0 |            0 |            0 |            0 |            0 |            0 |            0 |            0 |            0 |            0 |            0 |            0 |            0 |            0 |            0 |            0 |            0 |
dl2.miss_rate                               0.0630 |       0.0630 |       0.0933 |       0.0933 |       0.0476 |       0.0476 |       0.0744 |       0.0744 |       0.0410 |       0.0410 |       0.0644 |       0.0644 |       0.0371 |       0.0371 |       0.0594 |       0.0594 |       0.0352 |       0.0352 |       0.0569 |       0.0569 |       0.0323 |       0.0323 |       0.0557 |       0.0557 |       0.0301 |       0.0356 |       0.0550 |       0.0570 |       0.0319 |       0.1024 |       0.0559 |       0.2476 |       0.1019 |       0.1492 |       0.2473 |       0.2666 |       0.1560 |       0.1617 |       0.2665 |       0.2707 |       0.1647 |       0.1703 |       0.2706 |       0.2716 |
dl2.repl_rate                               0.0078 |       0.0078 |       0.0000 |       0.0000 |       0.0040 |       0.0040 |       0.0000 |       0.0000 |       0.0022 |       0.0022 |       0.0000 |       0.0000 |       0.0011 |       0.0011 |       0.0000 |       0.0000 |       0.0006 |       0.0006 |       0.0000 |       0.0000 |       0.0003 |       0.0003 |       0.0000 |       0.0000 |       0.0001 |       0.0064 |       0.0000 |       0.0027 |       0.0031 |       0.0879 |       0.0016 |       0.2204 |       0.0868 |       0.1417 |       0.2202 |       0.2531 |       0.1481 |       0.1578 |       0.2529 |       0.2639 |       0.1607 |       0.1683 |       0.2638 |       0.2682 |
dl2.wb_rate                                 0.0052 |       0.0052 |       0.0000 |       0.0000 |       0.0025 |       0.0025 |       0.0000 |       0.0000 |       0.0014 |       0.0014 |       0.0000 |       0.0000 |       0.0007 |       0.0007 |       0.0000 |       0.0000 |       0.0004 |       0.0004 |       0.0000 |       0.0000 |       0.0002 |       0.0002 |       0.0000 |       0.0000 |       0.0001 |       0.0048 |       0.0000 |       0.0025 |       0.0023 |       0.0666 |       0.0015 |       0.1228 |       0.0688 |       0.0750 |       0.1226 |       0.1294 |       0.0784 |       0.0829 |       0.1293 |       0.1327 |       0.0838 |       0.0889 |       0.1326 |       0.1343 |
dl2.inv_rate                                0.0000 |       0.0000 |       0.0000 |       0.0000 |       0.0000 |       0.0000 |       0.0000 |       0.0000 |       0.0000 |       0.0000 |       0.0000 |       0.0000 |       0.0000 |       0.0000 |       0.0000 |       0.0000 |       0.0000 |       0.0000 |       0.0000 |       0.0000 |       0.0000 |       0.0000 |       0.0000 |       0.0000 |       0.0000 |       0.0000 |       0.0000 |       0.0000 |       0.0000 |       0.0000 |       0.0000 |       0.0000 |       0.0000 |       0.0000 |       0.0000 |       0.0000 |       0.0000 |       0.0000 |       0.0000 |       0.0000 |       0.0000 |       0.0000 |       0.0000 |       0.0000 |
itlb.accesses                               378645 |       378645 |       378645 |       378645 |       744355 |       744355 |       744355 |       744355 |      1475493 |      1475493 |      1475493 |      1475493 |      2937766 |      2937766 |      2937766 |      2937766 |      5862310 |      5862310 |      5862310 |      5862310 |     11711399 |     11711399 |     11711399 |     11711399 |     23409575 |     23409575 |     23409575 |     23409575 |     46805927 |     46805927 |     46805927 |     46805927 |     93611107 |     93611107 |     93611107 |     93611107 |    187205739 |    187205739 |    187205739 |    187205739 |    374394995 |    374394995 |    374394995 |    374394995 |
itlb.hits                                   378635 |       378635 |       378635 |       378635 |       744345 |       744345 |       744345 |       744345 |      1475483 |      1475483 |      1475483 |      1475483 |      2937756 |      2937756 |      2937756 |      2937756 |      5862300 |      5862300 |      5862300 |      5862300 |     11711389 |     11711389 |     11711389 |     11711389 |     23409565 |     23409565 |     23409565 |     23409565 |     46805917 |     46805917 |     46805917 |     46805917 |     93611097 |     93611097 |     93611097 |     93611097 |    187205729 |    187205729 |    187205729 |    187205729 |    374394985 |    374394985 |    374394985 |    374394985 |
itlb.misses                                     10 |           10 |           10 |           10 |           10 |           10 |           10 |           10 |           10 |           10 |           10 |           10 |           10 |           10 |           10 |           10 |           10 |           10 |           10 |           10 |           10 |           10 |           10 |           10 |           10 |           10 |           10 |           10 |           10 |           10 |           10 |           10 |           10 |           10 |           10 |           10 |           10 |           10 |           10 |           10 |           10 |           10 |           10 |           10 |
itlb.replacements                                0 |            0 |            0 |            0 |            0 |            0 |            0 |            0 |            0 |            0 |            0 |            0 |            0 |            0 |            0 |            0 |            0 |            0 |            0 |            0 |            0 |            0 |            0 |            0 |            0 |            0 |            0 |            0 |            0 |            0 |            0 |            0 |            0 |            0 |            0 |            0 |            0 |            0 |            0 |            0 |            0 |            0 |            0 |            0 |
itlb.writebacks                                  0 |            0 |            0 |            0 |            0 |            0 |            0 |            0 |            0 |            0 |            0 |            0 |            0 |            0 |            0 |            0 |            0 |            0 |            0 |            0 |            0 |            0 |            0 |            0 |            0 |            0 |            0 |            0 |            0 |            0 |            0 |            0 |            0 |            0 |            0 |            0 |            0 |            0 |            0 |            0 |            0 |            0 |            0 |            0 |
itlb.invalidations                               0 |            0 |            0 |            0 |            0 |            0 |            0 |            0 |            0 |            0 |            0 |            0 |            0 |            0 |            0 |            0 |            0 |            0 |            0 |            0 |            0 |            0 |            0 |            0 |            0 |            0 |            0 |            0 |            0 |            0 |            0 |            0 |            0 |            0 |            0 |            0 |            0 |            0 |            0 |            0 |            0 |            0 |            0 |            0 |
itlb.miss_rate                              0.0000 |       0.0000 |       0.0000 |       0.0000 |       0.0000 |       0.0000 |       0.0000 |       0.0000 |       0.0000 |       0.0000 |       0.0000 |       0.0000 |       0.0000 |       0.0000 |       0.0000 |       0.0000 |       0.0000 |       0.0000 |       0.0000 |       0.0000 |       0.0000 |       0.0000 |       0.0000 |       0.0000 |       0.0000 |       0.0000 |       0.0000 |       0.0000 |       0.0000 |       0.0000 |       0.0000 |       0.0000 |       0.0000 |       0.0000 |       0.0000 |       0.0000 |       0.0000 |       0.0000 |       0.0000 |       0.0000 |       0.0000 |       0.0000 |       0.0000 |       0.0000 |
itlb.repl_rate                              0.0000 |       0.0000 |       0.0000 |       0.0000 |       0.0000 |       0.0000 |       0.0000 |       0.0000 |       0.0000 |       0.0000 |       0.0000 |       0.0000 |       0.0000 |       0.0000 |       0.0000 |       0.0000 |       0.0000 |       0.0000 |       0.0000 |       0.0000 |       0.0000 |       0.0000 |       0.0000 |       0.0000 |       0.0000 |       0.0000 |       0.0000 |       0.0000 |       0.0000 |       0.0000 |       0.0000 |       0.0000 |       0.0000 |       0.0000 |       0.0000 |       0.0000 |       0.0000 |       0.0000 |       0.0000 |       0.0000 |       0.0000 |       0.0000 |       0.0000 |       0.0000 |
itlb.wb_rate                                0.0000 |       0.0000 |       0.0000 |       0.0000 |       0.0000 |       0.0000 |       0.0000 |       0.0000 |       0.0000 |       0.0000 |       0.0000 |       0.0000 |       0.0000 |       0.0000 |       0.0000 |       0.0000 |       0.0000 |       0.0000 |       0.0000 |       0.0000 |       0.0000 |       0.0000 |       0.0000 |       0.0000 |       0.0000 |       0.0000 |       0.0000 |       0.0000 |       0.0000 |       0.0000 |       0.0000 |       0.0000 |       0.0000 |       0.0000 |       0.0000 |       0.0000 |       0.0000 |       0.0000 |       0.0000 |       0.0000 |       0.0000 |       0.0000 |       0.0000 |       0.0000 |
itlb.inv_rate                               0.0000 |       0.0000 |       0.0000 |       0.0000 |       0.0000 |       0.0000 |       0.0000 |       0.0000 |       0.0000 |       0.0000 |       0.0000 |       0.0000 |       0.0000 |       0.0000 |       0.0000 |       0.0000 |       0.0000 |       0.0000 |       0.0000 |       0.0000 |       0.0000 |       0.0000 |       0.0000 |       0.0000 |       0.0000 |       0.0000 |       0.0000 |       0.0000 |       0.0000 |       0.0000 |       0.0000 |       0.0000 |       0.0000 |       0.0000 |       0.0000 |       0.0000 |       0.0000 |       0.0000 |       0.0000 |       0.0000 |       0.0000 |       0.0000 |       0.0000 |       0.0000 |
dtlb.accesses                               155376 |       155376 |       155376 |       155376 |       302876 |       302876 |       302876 |       302876 |       597788 |       597788 |       597788 |       597788 |      1187612 |      1187612 |      1187612 |      1187612 |      2367260 |      2367260 |      2367260 |      2367260 |      4726556 |      4726556 |      4726556 |      4726556 |      9445148 |      9445148 |      9445148 |      9445148 |     18882332 |     18882332 |     18882332 |     18882332 |     37765962 |     37765962 |     37765962 |     37765962 |     75520842 |     75520842 |     75520842 |     75520842 |    151030602 |    151030602 |    151030602 |    151030602 |
dtlb.hits                                   155361 |       155361 |       155361 |       155361 |       302853 |       302853 |       302853 |       302853 |       597749 |       597749 |       597749 |       597749 |      1187541 |      1187541 |      1187541 |      1187541 |      2367113 |      2367113 |      2367113 |      2367113 |      4716083 |      4716083 |      4716083 |      4716083 |      8919919 |      8919919 |      8919919 |      8919919 |     17558438 |     17558438 |     17558438 |     17558438 |     34520425 |     34520425 |     34520425 |     34520425 |     68347150 |     68347150 |     68347150 |     68347150 |    135892297 |    135892297 |    135892297 |    135892297 |
dtlb.misses                                     15 |           15 |           15 |           15 |           23 |           23 |           23 |           23 |           39 |           39 |           39 |           39 |           71 |           71 |           71 |           71 |          147 |          147 |          147 |          147 |        10473 |        10473 |        10473 |        10473 |       525229 |       525229 |       525229 |       525229 |      1323894 |      1323894 |      1323894 |      1323894 |      3245537 |      3245537 |      3245537 |      3245537 |      7173692 |      7173692 |      7173692 |      7173692 |     15138305 |     15138305 |     15138305 |     15138305 |
dtlb.replacements                                0 |            0 |            0 |            0 |            0 |            0 |            0 |            0 |            0 |            0 |            0 |            0 |            0 |            0 |            0 |            0 |           19 |           19 |           19 |           19 |        10345 |        10345 |        10345 |        10345 |       525101 |       525101 |       525101 |       525101 |      1323766 |      1323766 |      1323766 |      1323766 |      3245409 |      3245409 |      3245409 |      3245409 |      7173564 |      7173564 |      7173564 |      7173564 |     15138177 |     15138177 |     15138177 |     15138177 |
dtlb.writebacks                                  0 |            0 |            0 |            0 |            0 |            0 |            0 |            0 |            0 |            0 |            0 |            0 |            0 |            0 |            0 |            0 |           15 |           15 |           15 |           15 |         9817 |         9817 |         9817 |         9817 |       523821 |       523821 |       523821 |       523821 |      1321209 |      1321209 |      1321209 |      1321209 |      3240362 |      3240362 |      3240362 |      3240362 |      7163419 |      7163419 |      7163419 |      7163419 |     15117798 |     15117798 |     15117798 |     15117798 |
dtlb.invalidations                               0 |            0 |            0 |            0 |            0 |            0 |            0 |            0 |            0 |            0 |            0 |            0 |            0 |            0 |            0 |            0 |            0 |            0 |            0 |            0 |            0 |            0 |            0 |            0 |            0 |            0 |            0 |            0 |            0 |            0 |            0 |            0 |            0 |            0 |            0 |            0 |            0 |            0 |            0 |            0 |            0 |            0 |            0 |            0 |
dtlb.miss_rate                              0.0001 |       0.0001 |       0.0001 |       0.0001 |       0.0001 |       0.0001 |       0.0001 |       0.0001 |       0.0001 |       0.0001 |       0.0001 |       0.0001 |       0.0001 |       0.0001 |       0.0001 |       0.0001 |       0.0001 |       0.0001 |       0.0001 |       0.0001 |       0.0022 |       0.0022 |       0.0022 |       0.0022 |       0.0556 |       0.0556 |       0.0556 |       0.0556 |       0.0701 |       0.0701 |       0.0701 |       0.0701 |       0.0859 |       0.0859 |       0.0859 |       0.0859 |       0.0950 |       0.0950 |       0.0950 |       0.0950 |       0.1002 |       0.1002 |       0.1002 |       0.1002 |
dtlb.repl_rate                              0.0000 |       0.0000 |       0.0000 |       0.0000 |       0.0000 |       0.0000 |       0.0000 |       0.0000 |       0.0000 |       0.0000 |       0.0000 |       0.0000 |       0.0000 |       0.0000 |       0.0000 |       0.0000 |       0.0000 |       0.0000 |       0.0000 |       0.0000 |       0.0022 |       0.0022 |       0.0022 |       0.0022 |       0.0556 |       0.0556 |       0.0556 |       0.0556 |       0.0701 |       0.0701 |       0.0701 |       0.0701 |       0.0859 |       0.0859 |       0.0859 |       0.0859 |       0.0950 |       0.0950 |       0.0950 |       0.0950 |       0.1002 |       0.1002 |       0.1002 |       0.1002 |
dtlb.wb_rate                                0.0000 |       0.0000 |       0.0000 |       0.0000 |       0.0000 |       0.0000 |       0.0000 |       0.0000 |       0.0000 |       0.0000 |       0.0000 |       0.0000 |       0.0000 |       0.0000 |       0.0000 |       0.0000 |       0.0000 |       0.0000 |       0.0000 |       0.0000 |       0.0021 |       0.0021 |       0.0021 |       0.0021 |       0.0555 |       0.0555 |       0.0555 |       0.0555 |       0.0700 |       0.0700 |       0.0700 |       0.0700 |       0.0858 |       0.0858 |       0.0858 |       0.0858 |       0.0949 |       0.0949 |       0.0949 |       0.0949 |       0.1001 |       0.1001 |       0.1001 |       0.1001 |
dtlb.inv_rate                               0.0000 |       0.0000 |       0.0000 |       0.0000 |       0.0000 |       0.0000 |       0.0000 |       0.0000 |       0.0000 |       0.0000 |       0.0000 |       0.0000 |       0.0000 |       0.0000 |       0.0000 |       0.0000 |       0.0000 |       0.0000 |       0.0000 |       0.0000 |       0.0000 |       0.0000 |       0.0000 |       0.0000 |       0.0000 |       0.0000 |       0.0000 |       0.0000 |       0.0000 |       0.0000 |       0.0000 |       0.0000 |       0.0000 |       0.0000 |       0.0000 |       0.0000 |       0.0000 |       0.0000 |       0.0000 |       0.0000 |       0.0000 |       0.0000 |       0.0000 |       0.0000 |
ld_text_base                            0x00400000 |   0x00400000 |   0x00400000 |   0x00400000 |   0x00400000 |   0x00400000 |   0x00400000 |   0x00400000 |   0x00400000 |   0x00400000 |   0x00400000 |   0x00400000 |   0x00400000 |   0x00400000 |   0x00400000 |   0x00400000 |   0x00400000 |   0x00400000 |   0x00400000 |   0x00400000 |   0x00400000 |   0x00400000 |   0x00400000 |   0x00400000 |   0x00400000 |   0x00400000 |   0x00400000 |   0x00400000 |   0x00400000 |   0x00400000 |   0x00400000 |   0x00400000 |   0x00400000 |   0x00400000 |   0x00400000 |   0x00400000 |   0x00400000 |   0x00400000 |   0x00400000 |   0x00400000 |   0x00400000 |   0x00400000 |   0x00400000 |   0x00400000 |
ld_text_size                                 73856 |        73856 |        73856 |        73856 |        73888 |        73888 |        73888 |        73888 |        73904 |        73904 |        73904 |        73904 |        73920 |        73920 |        73920 |        73920 |        73920 |        73920 |        73920 |        73920 |        73920 |        73920 |        73920 |        73920 |        73920 |        73920 |        73920 |        73920 |        73920 |        73920 |        73920 |        73920 |        73920 |        73920 |        73920 |        73920 |        73920 |        73920 |        73920 |        73920 |        73920 |        73920 |        73920 |        73920 |
ld_data_base                            0x10000000 |   0x10000000 |   0x10000000 |   0x10000000 |   0x10000000 |   0x10000000 |   0x10000000 |   0x10000000 |   0x10000000 |   0x10000000 |   0x10000000 |   0x10000000 |   0x10000000 |   0x10000000 |   0x10000000 |   0x10000000 |   0x10000000 |   0x10000000 |   0x10000000 |   0x10000000 |   0x10000000 |   0x10000000 |   0x10000000 |   0x10000000 |   0x10000000 |   0x10000000 |   0x10000000 |   0x10000000 |   0x10000000 |   0x10000000 |   0x10000000 |   0x10000000 |   0x10000000 |   0x10000000 |   0x10000000 |   0x10000000 |   0x10000000 |   0x10000000 |   0x10000000 |   0x10000000 |   0x10000000 |   0x10000000 |   0x10000000 |   0x10000000 |
ld_data_size                                  8192 |         8192 |         8192 |         8192 |         8192 |         8192 |         8192 |         8192 |         8192 |         8192 |         8192 |         8192 |         8192 |         8192 |         8192 |         8192 |         8192 |         8192 |         8192 |         8192 |         8192 |         8192 |         8192 |         8192 |         8192 |         8192 |         8192 |         8192 |         8192 |         8192 |         8192 |         8192 |         8192 |         8192 |         8192 |         8192 |         8192 |         8192 |         8192 |         8192 |         8192 |         8192 |         8192 |         8192 |
ld_stack_base                           0x7fffc000 |   0x7fffc000 |   0x7fffc000 |   0x7fffc000 |   0x7fffc000 |   0x7fffc000 |   0x7fffc000 |   0x7fffc000 |   0x7fffc000 |   0x7fffc000 |   0x7fffc000 |   0x7fffc000 |   0x7fffc000 |   0x7fffc000 |   0x7fffc000 |   0x7fffc000 |   0x7fffc000 |   0x7fffc000 |   0x7fffc000 |   0x7fffc000 |   0x7fffc000 |   0x7fffc000 |   0x7fffc000 |   0x7fffc000 |   0x7fffc000 |   0x7fffc000 |   0x7fffc000 |   0x7fffc000 |   0x7fffc000 |   0x7fffc000 |   0x7fffc000 |   0x7fffc000 |   0x7fffc000 |   0x7fffc000 |   0x7fffc000 |   0x7fffc000 |   0x7fffc000 |   0x7fffc000 |   0x7fffc000 |   0x7fffc000 |   0x7fffc000 |   0x7fffc000 |   0x7fffc000 |   0x7fffc000 |
ld_stack_size                                16384 |        16384 |        16384 |        16384 |        16384 |        16384 |        16384 |        16384 |        16384 |        16384 |        16384 |        16384 |        16384 |        16384 |        16384 |        16384 |        16384 |        16384 |        16384 |        16384 |        16384 |        16384 |        16384 |        16384 |        16384 |        16384 |        16384 |        16384 |        16384 |        16384 |        16384 |        16384 |        16384 |        16384 |        16384 |        16384 |        16384 |        16384 |        16384 |        16384 |        16384 |        16384 |        16384 |        16384 |
ld_prog_entry                           0x00400140 |   0x00400140 |   0x00400140 |   0x00400140 |   0x00400140 |   0x00400140 |   0x00400140 |   0x00400140 |   0x00400140 |   0x00400140 |   0x00400140 |   0x00400140 |   0x00400140 |   0x00400140 |   0x00400140 |   0x00400140 |   0x00400140 |   0x00400140 |   0x00400140 |   0x00400140 |   0x00400140 |   0x00400140 |   0x00400140 |   0x00400140 |   0x00400140 |   0x00400140 |   0x00400140 |   0x00400140 |   0x00400140 |   0x00400140 |   0x00400140 |   0x00400140 |   0x00400140 |   0x00400140 |   0x00400140 |   0x00400140 |   0x00400140 |   0x00400140 |   0x00400140 |   0x00400140 |   0x00400140 |   0x00400140 |   0x00400140 |   0x00400140 |
ld_environ_base                         0x7fff8000 |   0x7fff8000 |   0x7fff8000 |   0x7fff8000 |   0x7fff8000 |   0x7fff8000 |   0x7fff8000 |   0x7fff8000 |   0x7fff8000 |   0x7fff8000 |   0x7fff8000 |   0x7fff8000 |   0x7fff8000 |   0x7fff8000 |   0x7fff8000 |   0x7fff8000 |   0x7fff8000 |   0x7fff8000 |   0x7fff8000 |   0x7fff8000 |   0x7fff8000 |   0x7fff8000 |   0x7fff8000 |   0x7fff8000 |   0x7fff8000 |   0x7fff8000 |   0x7fff8000 |   0x7fff8000 |   0x7fff8000 |   0x7fff8000 |   0x7fff8000 |   0x7fff8000 |   0x7fff8000 |   0x7fff8000 |   0x7fff8000 |   0x7fff8000 |   0x7fff8000 |   0x7fff8000 |   0x7fff8000 |   0x7fff8000 |   0x7fff8000 |   0x7fff8000 |   0x7fff8000 |   0x7fff8000 |
ld_target_big_endian                             0 |            0 |            0 |            0 |            0 |            0 |            0 |            0 |            0 |            0 |            0 |            0 |            0 |            0 |            0 |            0 |            0 |            0 |            0 |            0 |            0 |            0 |            0 |            0 |            0 |            0 |            0 |            0 |            0 |            0 |            0 |            0 |            0 |            0 |            0 |            0 |            0 |            0 |            0 |            0 |            0 |            0 |            0 |            0 |
mem.page_count                                  34 |           34 |           34 |           34 |           42 |           42 |           42 |           42 |           58 |           58 |           58 |           58 |           90 |           90 |           90 |           90 |          154 |          154 |          154 |          154 |          282 |          282 |          282 |          282 |          538 |          538 |          538 |          538 |         1050 |         1050 |         1050 |         1050 |         2080 |         2080 |         2080 |         2080 |         4134 |         4134 |         4134 |         4134 |         8242 |         8242 |         8242 |         8242 |
mem.page_mem                                  136k |         136k |         136k |         136k |         168k |         168k |         168k |         168k |         232k |         232k |         232k |         232k |         360k |         360k |         360k |         360k |         616k |         616k |         616k |         616k |        1128k |        1128k |        1128k |        1128k |        2152k |        2152k |        2152k |        2152k |        4200k |        4200k |        4200k |        4200k |        8320k |        8320k |        8320k |        8320k |       16536k |       16536k |       16536k |       16536k |       32968k |       32968k |       32968k |       32968k |
mem.ptab_misses                                 34 |           34 |           34 |           34 |           42 |           42 |           42 |           42 |           58 |           58 |           58 |           58 |           90 |           90 |           90 |           90 |          154 |          154 |          154 |          154 |          282 |          282 |          282 |          282 |          538 |          538 |          538 |          538 |         1050 |         1050 |         1050 |         1050 |        18467 |        18467 |        18467 |        18467 |        18477 |        18477 |        18477 |        18477 |        22585 |        22585 |        22585 |        22585 |
mem.ptab_accesses                          2283060 |      2283060 |      2283060 |      2283060 |      4041092 |      4041092 |      4041092 |      4041092 |      7555564 |      7555564 |      7555564 |      7555564 |     14584400 |     14584400 |     14584400 |     14584400 |     28641872 |     28641872 |     28641872 |     28641872 |     56756820 |     56756820 |     56756820 |     56756820 |    112986708 |    112986708 |    112986708 |    112986708 |    225446484 |    225446484 |    225446484 |    225446484 |    450434464 |    450434464 |    450434464 |    450434464 |    900322752 |    900322752 |    900322752 |    900322752 |   1800099296 |   1800099296 |   1800099296 |   1800099296 |
mem.ptab_miss_rate                          0.0000 |       0.0000 |       0.0000 |       0.0000 |       0.0000 |       0.0000 |       0.0000 |       0.0000 |       0.0000 |       0.0000 |       0.0000 |       0.0000 |       0.0000 |       0.0000 |       0.0000 |       0.0000 |       0.0000 |       0.0000 |       0.0000 |       0.0000 |       0.0000 |       0.0000 |       0.0000 |       0.0000 |       0.0000 |       0.0000 |       0.0000 |       0.0000 |       0.0000 |       0.0000 |       0.0000 |       0.0000 |       0.0000 |       0.0000 |       0.0000 |       0.0000 |       0.0000 |       0.0000 |       0.0000 |       0.0000 |       0.0000 |       0.0000 |       0.0000 |       0.0000 |
-------------------------------------------------------------------------------------------------
sim-bpred                                     4096 |         4096 |         4096 |         4096 |         4096 |         4096 |         4096 |         8192 |         8192 |         8192 |         8192 |         8192 |         8192 |         8192 |        16384 |        16384 |        16384 |        16384 |        16384 |        16384 |        16384 |        32768 |        32768 |        32768 |        32768 |        32768 |        32768 |        32768 |        65536 |        65536 |        65536 |        65536 |        65536 |        65536 |        65536 |       131072 |       131072 |       131072 |       131072 |       131072 |       131072 |       131072 |       262144 |       262144 |       262144 |       262144 |       262144 |       262144 |       262144 |       524288 |       524288 |       524288 |       524288 |       524288 |       524288 |       524288 |      1048576 |      1048576 |      1048576 |      1048576 |      1048576 |      1048576 |      1048576 |      2097152 |      2097152 |      2097152 |      2097152 |      2097152 |      2097152 |      2097152 |      4194304 |      4194304 |      4194304 |      4194304 |      4194304 |      4194304 |      4194304 |
-bpred bimod -bpred:bimod 512
-bpred bimod -bpred:bimod 1024
-bpred bimod -bpred:bimod 2048
-bpred 2lev -bpred:2lev 1 512 10 1
-bpred 2lev -bpred:2lev 1 1024 10 1
-bpred 2lev -bpred:2lev 1 2048 10 1
-bpred 2lev -bpred:2lev 1 4096 10 1
-------------------------------------------------------------------------------------------------
sim_num_insn                                378645 |       378645 |       378645 |       378645 |       378645 |       378645 |       378645 |       744355 |       744355 |       744355 |       744355 |       744355 |       744355 |       744355 |      1475493 |      1475493 |      1475493 |      1475493 |      1475493 |      1475493 |      1475493 |      2937766 |      2937766 |      2937766 |      2937766 |      2937766 |      2937766 |      2937766 |      5862310 |      5862310 |      5862310 |      5862310 |      5862310 |      5862310 |      5862310 |     11711399 |     11711399 |     11711399 |     11711399 |     11711399 |     11711399 |     11711399 |     23409575 |     23409575 |     23409575 |     23409575 |     23409575 |     23409575 |     23409575 |     46805927 |     46805927 |     46805927 |     46805927 |     46805927 |     46805927 |     46805927 |     93611107 |     93611107 |     93611107 |     93611107 |     93611107 |     93611107 |     93611107 |    187205739 |    187205739 |    187205739 |    187205739 |    187205739 |    187205739 |    187205739 |    374394995 |    374394995 |    374394995 |    374394995 |    374394995 |    374394995 |    374394995 |
sim_num_refs                                138910 |       138910 |       138910 |       138910 |       138910 |       138910 |       138910 |       270026 |       270026 |       270026 |       270026 |       270026 |       270026 |       270026 |       532170 |       532170 |       532170 |       532170 |       532170 |       532170 |       532170 |      1056458 |      1056458 |      1056458 |      1056458 |      1056458 |      1056458 |      1056458 |      2105034 |      2105034 |      2105034 |      2105034 |      2105034 |      2105034 |      2105034 |      4202186 |      4202186 |      4202186 |      4202186 |      4202186 |      4202186 |      4202186 |      8396490 |      8396490 |      8396490 |      8396490 |      8396490 |      8396490 |      8396490 |     16785098 |     16785098 |     16785098 |     16785098 |     16785098 |     16785098 |     16785098 |     33571576 |     33571576 |     33571576 |     33571576 |     33571576 |     33571576 |     33571576 |     67132152 |     67132152 |     67132152 |     67132152 |     67132152 |     67132152 |     67132152 |    134253304 |    134253304 |    134253304 |    134253304 |    134253304 |    134253304 |    134253304 |
sim_elapsed_time                                 1 |            1 |            1 |            1 |            1 |            1 |            1 |            1 |            1 |            1 |            1 |            1 |            1 |            1 |            1 |            1 |            1 |            1 |            1 |            1 |            1 |            1 |            1 |            1 |            1 |            1 |            1 |            1 |            1 |            1 |            1 |            1 |            1 |            1 |            1 |            1 |            1 |            1 |            2 |            1 |            1 |            1 |            3 |            2 |            2 |            3 |            2 |            2 |            3 |            5 |            5 |            4 |            5 |            5 |            5 |            4 |           10 |            9 |            9 |           10 |            9 |            9 |           10 |           18 |           19 |           19 |           20 |           21 |           21 |           19 |           37 |           37 |           38 |           37 |           38 |           38 |           39 |
sim_inst_rate                          378645.0000 |  378645.0000 |  378645.0000 |  378645.0000 |  378645.0000 |  378645.0000 |  378645.0000 |  744355.0000 |  744355.0000 |  744355.0000 |  744355.0000 |  744355.0000 |  744355.0000 |  744355.0000 | 1475493.0000 | 1475493.0000 | 1475493.0000 | 1475493.0000 | 1475493.0000 | 1475493.0000 | 1475493.0000 | 2937766.0000 | 2937766.0000 | 2937766.0000 | 2937766.0000 | 2937766.0000 | 2937766.0000 | 2937766.0000 | 5862310.0000 | 5862310.0000 | 5862310.0000 | 5862310.0000 | 5862310.0000 | 5862310.0000 | 5862310.0000 |11711399.0000 |11711399.0000 |11711399.0000 | 5855699.5000 |11711399.0000 |11711399.0000 |11711399.0000 | 7803191.6667 |11704787.5000 |11704787.5000 | 7803191.6667 |11704787.5000 |11704787.5000 | 7803191.6667 | 9361185.4000 | 9361185.4000 |11701481.7500 | 9361185.4000 | 9361185.4000 | 9361185.4000 |11701481.7500 | 9361110.7000 |10401234.1111 |10401234.1111 | 9361110.7000 |10401234.1111 |10401234.1111 | 9361110.7000 |10400318.8333 | 9852933.6316 | 9852933.6316 | 9360286.9500 | 8914559.0000 | 8914559.0000 | 9852933.6316 |10118783.6486 |10118783.6486 | 9852499.8684 |10118783.6486 | 9852499.8684 | 9852499.8684 | 9599871.6667 |
sim_num_branches                              9241 |         9241 |         9241 |         9241 |         9241 |         9241 |         9241 |        17473 |        17473 |        17473 |        17473 |        17473 |        17473 |        17473 |        33857 |        33857 |        33857 |        33857 |        33857 |        33857 |        33857 |        66625 |        66625 |        66625 |        66625 |        66625 |        66625 |        66625 |       132161 |       132161 |       132161 |       132161 |       132161 |       132161 |       132161 |       263233 |       263233 |       263233 |       263233 |       263233 |       263233 |       263233 |       525377 |       525377 |       525377 |       525377 |       525377 |       525377 |       525377 |      1049665 |      1049665 |      1049665 |      1049665 |      1049665 |      1049665 |      1049665 |      2099034 |      2099034 |      2099034 |      2099034 |      2099034 |      2099034 |      2099034 |      4196957 |      4196957 |      4196957 |      4196957 |      4196957 |      4196957 |      4196957 |      8392800 |      8392800 |      8392800 |      8392800 |      8392800 |      8392800 |      8392800 |
sim_IPB                                    40.9745 |      40.9745 |      40.9745 |      40.9745 |      40.9745 |      40.9745 |      40.9745 |      42.6003 |      42.6003 |      42.6003 |      42.6003 |      42.6003 |      42.6003 |      42.6003 |      43.5801 |      43.5801 |      43.5801 |      43.5801 |      43.5801 |      43.5801 |      43.5801 |      44.0940 |      44.0940 |      44.0940 |      44.0940 |      44.0940 |      44.0940 |      44.0940 |      44.3573 |      44.3573 |      44.3573 |      44.3573 |      44.3573 |      44.3573 |      44.3573 |      44.4906 |      44.4906 |      44.4906 |      44.4906 |      44.4906 |      44.4906 |      44.4906 |      44.5577 |      44.5577 |      44.5577 |      44.5577 |      44.5577 |      44.5577 |      44.5577 |      44.5913 |      44.5913 |      44.5913 |      44.5913 |      44.5913 |      44.5913 |      44.5913 |      44.5972 |      44.5972 |      44.5972 |      44.5972 |      44.5972 |      44.5972 |      44.5972 |      44.6051 |      44.6051 |      44.6051 |      44.6051 |      44.6051 |      44.6051 |      44.6051 |      44.6091 |      44.6091 |      44.6091 |      44.6091 |      44.6091 |      44.6091 |      44.6091 |
bpred_bimod.lookups                           9241 |         9241 |         9241 |xxxxxxxxxxxxx |xxxxxxxxxxxxx |xxxxxxxxxxxxx |xxxxxxxxxxxxx |        17473 |        17473 |        17473 |xxxxxxxxxxxxx |xxxxxxxxxxxxx |xxxxxxxxxxxxx |xxxxxxxxxxxxx |        33857 |        33857 |        33857 |xxxxxxxxxxxxx |xxxxxxxxxxxxx |xxxxxxxxxxxxx |xxxxxxxxxxxxx |        66625 |        66625 |        66625 |xxxxxxxxxxxxx |xxxxxxxxxxxxx |xxxxxxxxxxxxx |xxxxxxxxxxxxx |       132161 |       132161 |       132161 |xxxxxxxxxxxxx |xxxxxxxxxxxxx |xxxxxxxxxxxxx |xxxxxxxxxxxxx |       263233 |       263233 |       263233 |xxxxxxxxxxxxx |xxxxxxxxxxxxx |xxxxxxxxxxxxx |xxxxxxxxxxxxx |       525377 |       525377 |       525377 |xxxxxxxxxxxxx |xxxxxxxxxxxxx |xxxxxxxxxxxxx |xxxxxxxxxxxxx |      1049665 |      1049665 |      1049665 |xxxxxxxxxxxxx |xxxxxxxxxxxxx |xxxxxxxxxxxxx |xxxxxxxxxxxxx |      2099034 |      2099034 |      2099034 |xxxxxxxxxxxxx |xxxxxxxxxxxxx |xxxxxxxxxxxxx |xxxxxxxxxxxxx |      4196957 |      4196957 |      4196957 |xxxxxxxxxxxxx |xxxxxxxxxxxxx |xxxxxxxxxxxxx |xxxxxxxxxxxxx |      8392800 |      8392800 |      8392800 |
bpred_bimod.updates                           9241 |         9241 |         9241 |xxxxxxxxxxxxx |xxxxxxxxxxxxx |xxxxxxxxxxxxx |xxxxxxxxxxxxx |        17473 |        17473 |        17473 |xxxxxxxxxxxxx |xxxxxxxxxxxxx |xxxxxxxxxxxxx |xxxxxxxxxxxxx |        33857 |        33857 |        33857 |xxxxxxxxxxxxx |xxxxxxxxxxxxx |xxxxxxxxxxxxx |xxxxxxxxxxxxx |        66625 |        66625 |        66625 |xxxxxxxxxxxxx |xxxxxxxxxxxxx |xxxxxxxxxxxxx |xxxxxxxxxxxxx |       132161 |       132161 |       132161 |xxxxxxxxxxxxx |xxxxxxxxxxxxx |xxxxxxxxxxxxx |xxxxxxxxxxxxx |       263233 |       263233 |       263233 |xxxxxxxxxxxxx |xxxxxxxxxxxxx |xxxxxxxxxxxxx |xxxxxxxxxxxxx |       525377 |       525377 |       525377 |xxxxxxxxxxxxx |xxxxxxxxxxxxx |xxxxxxxxxxxxx |xxxxxxxxxxxxx |      1049665 |      1049665 |      1049665 |xxxxxxxxxxxxx |xxxxxxxxxxxxx |xxxxxxxxxxxxx |xxxxxxxxxxxxx |      2099034 |      2099034 |      2099034 |xxxxxxxxxxxxx |xxxxxxxxxxxxx |xxxxxxxxxxxxx |xxxxxxxxxxxxx |      4196957 |      4196957 |      4196957 |xxxxxxxxxxxxx |xxxxxxxxxxxxx |xxxxxxxxxxxxx |xxxxxxxxxxxxx |      8392800 |      8392800 |      8392800 |
bpred_bimod.addr_hits                         9039 |         9041 |         9041 |xxxxxxxxxxxxx |xxxxxxxxxxxxx |xxxxxxxxxxxxx |xxxxxxxxxxxxx |        17264 |        17266 |        17266 |xxxxxxxxxxxxx |xxxxxxxxxxxxx |xxxxxxxxxxxxx |xxxxxxxxxxxxx |        33649 |        33651 |        33651 |xxxxxxxxxxxxx |xxxxxxxxxxxxx |xxxxxxxxxxxxx |xxxxxxxxxxxxx |        66417 |        66419 |        66419 |xxxxxxxxxxxxx |xxxxxxxxxxxxx |xxxxxxxxxxxxx |xxxxxxxxxxxxx |       131953 |       131955 |       131955 |xxxxxxxxxxxxx |xxxxxxxxxxxxx |xxxxxxxxxxxxx |xxxxxxxxxxxxx |       263025 |       263027 |       263027 |xxxxxxxxxxxxx |xxxxxxxxxxxxx |xxxxxxxxxxxxx |xxxxxxxxxxxxx |       525169 |       525171 |       525171 |xxxxxxxxxxxxx |xxxxxxxxxxxxx |xxxxxxxxxxxxx |xxxxxxxxxxxxx |      1049457 |      1049459 |      1049459 |xxxxxxxxxxxxx |xxxxxxxxxxxxx |xxxxxxxxxxxxx |xxxxxxxxxxxxx |      2098803 |      2098804 |      2098803 |xxxxxxxxxxxxx |xxxxxxxxxxxxx |xxxxxxxxxxxxx |xxxxxxxxxxxxx |      4196726 |      4196727 |      4196726 |xxxxxxxxxxxxx |xxxxxxxxxxxxx |xxxxxxxxxxxxx |xxxxxxxxxxxxx |      8392569 |      8392570 |      8392569 |
bpred_bimod.dir_hits                          9138 |         9142 |         9142 |xxxxxxxxxxxxx |xxxxxxxxxxxxx |xxxxxxxxxxxxx |xxxxxxxxxxxxx |        17367 |        17371 |        17371 |xxxxxxxxxxxxx |xxxxxxxxxxxxx |xxxxxxxxxxxxx |xxxxxxxxxxxxx |        33753 |        33756 |        33756 |xxxxxxxxxxxxx |xxxxxxxxxxxxx |xxxxxxxxxxxxx |xxxxxxxxxxxxx |        66520 |        66523 |        66523 |xxxxxxxxxxxxx |xxxxxxxxxxxxx |xxxxxxxxxxxxx |xxxxxxxxxxxxx |       132056 |       132059 |       132059 |xxxxxxxxxxxxx |xxxxxxxxxxxxx |xxxxxxxxxxxxx |xxxxxxxxxxxxx |       263129 |       263132 |       263132 |xxxxxxxxxxxxx |xxxxxxxxxxxxx |xxxxxxxxxxxxx |xxxxxxxxxxxxx |       525273 |       525276 |       525276 |xxxxxxxxxxxxx |xxxxxxxxxxxxx |xxxxxxxxxxxxx |xxxxxxxxxxxxx |      1049561 |      1049564 |      1049564 |xxxxxxxxxxxxx |xxxxxxxxxxxxx |xxxxxxxxxxxxx |xxxxxxxxxxxxx |      2098918 |      2098919 |      2098919 |xxxxxxxxxxxxx |xxxxxxxxxxxxx |xxxxxxxxxxxxx |xxxxxxxxxxxxx |      4196841 |      4196842 |      4196842 |xxxxxxxxxxxxx |xxxxxxxxxxxxx |xxxxxxxxxxxxx |xxxxxxxxxxxxx |      8392684 |      8392685 |      8392685 |
bpred_bimod.misses                             103 |           99 |           99 |xxxxxxxxxxxxx |xxxxxxxxxxxxx |xxxxxxxxxxxxx |xxxxxxxxxxxxx |          106 |          102 |          102 |xxxxxxxxxxxxx |xxxxxxxxxxxxx |xxxxxxxxxxxxx |xxxxxxxxxxxxx |          104 |          101 |          101 |xxxxxxxxxxxxx |xxxxxxxxxxxxx |xxxxxxxxxxxxx |xxxxxxxxxxxxx |          105 |          102 |          102 |xxxxxxxxxxxxx |xxxxxxxxxxxxx |xxxxxxxxxxxxx |xxxxxxxxxxxxx |          105 |          102 |          102 |xxxxxxxxxxxxx |xxxxxxxxxxxxx |xxxxxxxxxxxxx |xxxxxxxxxxxxx |          104 |          101 |          101 |xxxxxxxxxxxxx |xxxxxxxxxxxxx |xxxxxxxxxxxxx |xxxxxxxxxxxxx |          104 |          101 |          101 |xxxxxxxxxxxxx |xxxxxxxxxxxxx |xxxxxxxxxxxxx |xxxxxxxxxxxxx |          104 |          101 |          101 |xxxxxxxxxxxxx |xxxxxxxxxxxxx |xxxxxxxxxxxxx |xxxxxxxxxxxxx |          116 |          115 |          115 |xxxxxxxxxxxxx |xxxxxxxxxxxxx |xxxxxxxxxxxxx |xxxxxxxxxxxxx |          116 |          115 |          115 |xxxxxxxxxxxxx |xxxxxxxxxxxxx |xxxxxxxxxxxxx |xxxxxxxxxxxxx |          116 |          115 |          115 |
bpred_bimod.jr_hits                             61 |           61 |           61 |xxxxxxxxxxxxx |xxxxxxxxxxxxx |xxxxxxxxxxxxx |xxxxxxxxxxxxx |           69 |           69 |           69 |xxxxxxxxxxxxx |xxxxxxxxxxxxx |xxxxxxxxxxxxx |xxxxxxxxxxxxx |           69 |           69 |           69 |xxxxxxxxxxxxx |xxxxxxxxxxxxx |xxxxxxxxxxxxx |xxxxxxxxxxxxx |           69 |           69 |           69 |xxxxxxxxxxxxx |xxxxxxxxxxxxx |xxxxxxxxxxxxx |xxxxxxxxxxxxx |           69 |           69 |           69 |xxxxxxxxxxxxx |xxxxxxxxxxxxx |xxxxxxxxxxxxx |xxxxxxxxxxxxx |           69 |           69 |           69 |xxxxxxxxxxxxx |xxxxxxxxxxxxx |xxxxxxxxxxxxx |xxxxxxxxxxxxx |           69 |           69 |           69 |xxxxxxxxxxxxx |xxxxxxxxxxxxx |xxxxxxxxxxxxx |xxxxxxxxxxxxx |           69 |           69 |           69 |xxxxxxxxxxxxx |xxxxxxxxxxxxx |xxxxxxxxxxxxx |xxxxxxxxxxxxx |           72 |           72 |           72 |xxxxxxxxxxxxx |xxxxxxxxxxxxx |xxxxxxxxxxxxx |xxxxxxxxxxxxx |           72 |           72 |           72 |xxxxxxxxxxxxx |xxxxxxxxxxxxx |xxxxxxxxxxxxx |xxxxxxxxxxxxx |           72 |           72 |           72 |
bpred_bimod.jr_seen                             61 |           61 |           61 |xxxxxxxxxxxxx |xxxxxxxxxxxxx |xxxxxxxxxxxxx |xxxxxxxxxxxxx |           70 |           70 |           70 |xxxxxxxxxxxxx |xxxxxxxxxxxxx |xxxxxxxxxxxxx |xxxxxxxxxxxxx |           70 |           70 |           70 |xxxxxxxxxxxxx |xxxxxxxxxxxxx |xxxxxxxxxxxxx |xxxxxxxxxxxxx |           70 |           70 |           70 |xxxxxxxxxxxxx |xxxxxxxxxxxxx |xxxxxxxxxxxxx |xxxxxxxxxxxxx |           70 |           70 |           70 |xxxxxxxxxxxxx |xxxxxxxxxxxxx |xxxxxxxxxxxxx |xxxxxxxxxxxxx |           70 |           70 |           70 |xxxxxxxxxxxxx |xxxxxxxxxxxxx |xxxxxxxxxxxxx |xxxxxxxxxxxxx |           70 |           70 |           70 |xxxxxxxxxxxxx |xxxxxxxxxxxxx |xxxxxxxxxxxxx |xxxxxxxxxxxxx |           70 |           70 |           70 |xxxxxxxxxxxxx |xxxxxxxxxxxxx |xxxxxxxxxxxxx |xxxxxxxxxxxxx |           73 |           73 |           73 |xxxxxxxxxxxxx |xxxxxxxxxxxxx |xxxxxxxxxxxxx |xxxxxxxxxxxxx |           73 |           73 |           73 |xxxxxxxxxxxxx |xxxxxxxxxxxxx |xxxxxxxxxxxxx |xxxxxxxxxxxxx |           73 |           73 |           73 |
bpred_bimod.jr_non_ras_hits.PP                   0 |            0 |            0 |xxxxxxxxxxxxx |xxxxxxxxxxxxx |xxxxxxxxxxxxx |xxxxxxxxxxxxx |            0 |            0 |            0 |xxxxxxxxxxxxx |xxxxxxxxxxxxx |xxxxxxxxxxxxx |xxxxxxxxxxxxx |            0 |            0 |            0 |xxxxxxxxxxxxx |xxxxxxxxxxxxx |xxxxxxxxxxxxx |xxxxxxxxxxxxx |            0 |            0 |            0 |xxxxxxxxxxxxx |xxxxxxxxxxxxx |xxxxxxxxxxxxx |xxxxxxxxxxxxx |            0 |            0 |            0 |xxxxxxxxxxxxx |xxxxxxxxxxxxx |xxxxxxxxxxxxx |xxxxxxxxxxxxx |            0 |            0 |            0 |xxxxxxxxxxxxx |xxxxxxxxxxxxx |xxxxxxxxxxxxx |xxxxxxxxxxxxx |            0 |            0 |            0 |xxxxxxxxxxxxx |xxxxxxxxxxxxx |xxxxxxxxxxxxx |xxxxxxxxxxxxx |            0 |            0 |            0 |xxxxxxxxxxxxx |xxxxxxxxxxxxx |xxxxxxxxxxxxx |xxxxxxxxxxxxx |            0 |            0 |            0 |xxxxxxxxxxxxx |xxxxxxxxxxxxx |xxxxxxxxxxxxx |xxxxxxxxxxxxx |            0 |            0 |            0 |xxxxxxxxxxxxx |xxxxxxxxxxxxx |xxxxxxxxxxxxx |xxxxxxxxxxxxx |            0 |            0 |            0 |
bpred_bimod.jr_non_ras_seen.PP                   0 |            0 |            0 |xxxxxxxxxxxxx |xxxxxxxxxxxxx |xxxxxxxxxxxxx |xxxxxxxxxxxxx |            0 |            0 |            0 |xxxxxxxxxxxxx |xxxxxxxxxxxxx |xxxxxxxxxxxxx |xxxxxxxxxxxxx |            0 |            0 |            0 |xxxxxxxxxxxxx |xxxxxxxxxxxxx |xxxxxxxxxxxxx |xxxxxxxxxxxxx |            0 |            0 |            0 |xxxxxxxxxxxxx |xxxxxxxxxxxxx |xxxxxxxxxxxxx |xxxxxxxxxxxxx |            0 |            0 |            0 |xxxxxxxxxxxxx |xxxxxxxxxxxxx |xxxxxxxxxxxxx |xxxxxxxxxxxxx |            0 |            0 |            0 |xxxxxxxxxxxxx |xxxxxxxxxxxxx |xxxxxxxxxxxxx |xxxxxxxxxxxxx |            0 |            0 |            0 |xxxxxxxxxxxxx |xxxxxxxxxxxxx |xxxxxxxxxxxxx |xxxxxxxxxxxxx |            0 |            0 |            0 |xxxxxxxxxxxxx |xxxxxxxxxxxxx |xxxxxxxxxxxxx |xxxxxxxxxxxxx |            1 |            1 |            1 |xxxxxxxxxxxxx |xxxxxxxxxxxxx |xxxxxxxxxxxxx |xxxxxxxxxxxxx |            1 |            1 |            1 |xxxxxxxxxxxxx |xxxxxxxxxxxxx |xxxxxxxxxxxxx |xxxxxxxxxxxxx |            1 |            1 |            1 |
bpred_bimod.bpred_addr_rate                 0.9781 |       0.9784 |       0.9784 |xxxxxxxxxxxxx |xxxxxxxxxxxxx |xxxxxxxxxxxxx |xxxxxxxxxxxxx |       0.9880 |       0.9882 |       0.9882 |xxxxxxxxxxxxx |xxxxxxxxxxxxx |xxxxxxxxxxxxx |xxxxxxxxxxxxx |       0.9939 |       0.9939 |       0.9939 |xxxxxxxxxxxxx |xxxxxxxxxxxxx |xxxxxxxxxxxxx |xxxxxxxxxxxxx |       0.9969 |       0.9969 |       0.9969 |xxxxxxxxxxxxx |xxxxxxxxxxxxx |xxxxxxxxxxxxx |xxxxxxxxxxxxx |       0.9984 |       0.9984 |       0.9984 |xxxxxxxxxxxxx |xxxxxxxxxxxxx |xxxxxxxxxxxxx |xxxxxxxxxxxxx |       0.9992 |       0.9992 |       0.9992 |xxxxxxxxxxxxx |xxxxxxxxxxxxx |xxxxxxxxxxxxx |xxxxxxxxxxxxx |       0.9996 |       0.9996 |       0.9996 |xxxxxxxxxxxxx |xxxxxxxxxxxxx |xxxxxxxxxxxxx |xxxxxxxxxxxxx |       0.9998 |       0.9998 |       0.9998 |xxxxxxxxxxxxx |xxxxxxxxxxxxx |xxxxxxxxxxxxx |xxxxxxxxxxxxx |       0.9999 |       0.9999 |       0.9999 |xxxxxxxxxxxxx |xxxxxxxxxxxxx |xxxxxxxxxxxxx |xxxxxxxxxxxxx |       0.9999 |       0.9999 |       0.9999 |xxxxxxxxxxxxx |xxxxxxxxxxxxx |xxxxxxxxxxxxx |xxxxxxxxxxxxx |       1.0000 |       1.0000 |       1.0000 |
bpred_bimod.bpred_dir_rate                  0.9889 |       0.9893 |       0.9893 |xxxxxxxxxxxxx |xxxxxxxxxxxxx |xxxxxxxxxxxxx |xxxxxxxxxxxxx |       0.9939 |       0.9942 |       0.9942 |xxxxxxxxxxxxx |xxxxxxxxxxxxx |xxxxxxxxxxxxx |xxxxxxxxxxxxx |       0.9969 |       0.9970 |       0.9970 |xxxxxxxxxxxxx |xxxxxxxxxxxxx |xxxxxxxxxxxxx |xxxxxxxxxxxxx |       0.9984 |       0.9985 |       0.9985 |xxxxxxxxxxxxx |xxxxxxxxxxxxx |xxxxxxxxxxxxx |xxxxxxxxxxxxx |       0.9992 |       0.9992 |       0.9992 |xxxxxxxxxxxxx |xxxxxxxxxxxxx |xxxxxxxxxxxxx |xxxxxxxxxxxxx |       0.9996 |       0.9996 |       0.9996 |xxxxxxxxxxxxx |xxxxxxxxxxxxx |xxxxxxxxxxxxx |xxxxxxxxxxxxx |       0.9998 |       0.9998 |       0.9998 |xxxxxxxxxxxxx |xxxxxxxxxxxxx |xxxxxxxxxxxxx |xxxxxxxxxxxxx |       0.9999 |       0.9999 |       0.9999 |xxxxxxxxxxxxx |xxxxxxxxxxxxx |xxxxxxxxxxxxx |xxxxxxxxxxxxx |       0.9999 |       0.9999 |       0.9999 |xxxxxxxxxxxxx |xxxxxxxxxxxxx |xxxxxxxxxxxxx |xxxxxxxxxxxxx |       1.0000 |       1.0000 |       1.0000 |xxxxxxxxxxxxx |xxxxxxxxxxxxx |xxxxxxxxxxxxx |xxxxxxxxxxxxx |       1.0000 |       1.0000 |       1.0000 |
bpred_bimod.bpred_jr_rate                   1.0000 |       1.0000 |       1.0000 |xxxxxxxxxxxxx |xxxxxxxxxxxxx |xxxxxxxxxxxxx |xxxxxxxxxxxxx |       0.9857 |       0.9857 |       0.9857 |xxxxxxxxxxxxx |xxxxxxxxxxxxx |xxxxxxxxxxxxx |xxxxxxxxxxxxx |       0.9857 |       0.9857 |       0.9857 |xxxxxxxxxxxxx |xxxxxxxxxxxxx |xxxxxxxxxxxxx |xxxxxxxxxxxxx |       0.9857 |       0.9857 |       0.9857 |xxxxxxxxxxxxx |xxxxxxxxxxxxx |xxxxxxxxxxxxx |xxxxxxxxxxxxx |       0.9857 |       0.9857 |       0.9857 |xxxxxxxxxxxxx |xxxxxxxxxxxxx |xxxxxxxxxxxxx |xxxxxxxxxxxxx |       0.9857 |       0.9857 |       0.9857 |xxxxxxxxxxxxx |xxxxxxxxxxxxx |xxxxxxxxxxxxx |xxxxxxxxxxxxx |       0.9857 |       0.9857 |       0.9857 |xxxxxxxxxxxxx |xxxxxxxxxxxxx |xxxxxxxxxxxxx |xxxxxxxxxxxxx |       0.9857 |       0.9857 |       0.9857 |xxxxxxxxxxxxx |xxxxxxxxxxxxx |xxxxxxxxxxxxx |xxxxxxxxxxxxx |       0.9863 |       0.9863 |       0.9863 |xxxxxxxxxxxxx |xxxxxxxxxxxxx |xxxxxxxxxxxxx |xxxxxxxxxxxxx |       0.9863 |       0.9863 |       0.9863 |xxxxxxxxxxxxx |xxxxxxxxxxxxx |xxxxxxxxxxxxx |xxxxxxxxxxxxx |       0.9863 |       0.9863 |       0.9863 |
bpred_bimod.bpred_jr_non_ras_rate.PP       <error: |      <error: |      <error: |xxxxxxxxxxxxx |xxxxxxxxxxxxx |xxxxxxxxxxxxx |xxxxxxxxxxxxx |      <error: |      <error: |      <error: |xxxxxxxxxxxxx |xxxxxxxxxxxxx |xxxxxxxxxxxxx |xxxxxxxxxxxxx |      <error: |      <error: |      <error: |xxxxxxxxxxxxx |xxxxxxxxxxxxx |xxxxxxxxxxxxx |xxxxxxxxxxxxx |      <error: |      <error: |      <error: |xxxxxxxxxxxxx |xxxxxxxxxxxxx |xxxxxxxxxxxxx |xxxxxxxxxxxxx |      <error: |      <error: |      <error: |xxxxxxxxxxxxx |xxxxxxxxxxxxx |xxxxxxxxxxxxx |xxxxxxxxxxxxx |      <error: |      <error: |      <error: |xxxxxxxxxxxxx |xxxxxxxxxxxxx |xxxxxxxxxxxxx |xxxxxxxxxxxxx |      <error: |      <error: |      <error: |xxxxxxxxxxxxx |xxxxxxxxxxxxx |xxxxxxxxxxxxx |xxxxxxxxxxxxx |      <error: |      <error: |      <error: |xxxxxxxxxxxxx |xxxxxxxxxxxxx |xxxxxxxxxxxxx |xxxxxxxxxxxxx |       0.0000 |       0.0000 |       0.0000 |xxxxxxxxxxxxx |xxxxxxxxxxxxx |xxxxxxxxxxxxx |xxxxxxxxxxxxx |       0.0000 |       0.0000 |       0.0000 |xxxxxxxxxxxxx |xxxxxxxxxxxxx |xxxxxxxxxxxxx |xxxxxxxxxxxxx |       0.0000 |       0.0000 |       0.0000 |
bpred_bimod.retstack_pushes                     63 |           63 |           63 |xxxxxxxxxxxxx |xxxxxxxxxxxxx |xxxxxxxxxxxxx |xxxxxxxxxxxxx |           72 |           72 |           72 |xxxxxxxxxxxxx |xxxxxxxxxxxxx |xxxxxxxxxxxxx |xxxxxxxxxxxxx |           72 |           72 |           72 |xxxxxxxxxxxxx |xxxxxxxxxxxxx |xxxxxxxxxxxxx |xxxxxxxxxxxxx |           72 |           72 |           72 |xxxxxxxxxxxxx |xxxxxxxxxxxxx |xxxxxxxxxxxxx |xxxxxxxxxxxxx |           72 |           72 |           72 |xxxxxxxxxxxxx |xxxxxxxxxxxxx |xxxxxxxxxxxxx |xxxxxxxxxxxxx |           72 |           72 |           72 |xxxxxxxxxxxxx |xxxxxxxxxxxxx |xxxxxxxxxxxxx |xxxxxxxxxxxxx |           72 |           72 |           72 |xxxxxxxxxxxxx |xxxxxxxxxxxxx |xxxxxxxxxxxxx |xxxxxxxxxxxxx |           72 |           72 |           72 |xxxxxxxxxxxxx |xxxxxxxxxxxxx |xxxxxxxxxxxxx |xxxxxxxxxxxxx |           74 |           74 |           74 |xxxxxxxxxxxxx |xxxxxxxxxxxxx |xxxxxxxxxxxxx |xxxxxxxxxxxxx |           74 |           74 |           74 |xxxxxxxxxxxxx |xxxxxxxxxxxxx |xxxxxxxxxxxxx |xxxxxxxxxxxxx |           74 |           74 |           74 |
bpred_bimod.retstack_pops                       61 |           61 |           61 |xxxxxxxxxxxxx |xxxxxxxxxxxxx |xxxxxxxxxxxxx |xxxxxxxxxxxxx |           70 |           70 |           70 |xxxxxxxxxxxxx |xxxxxxxxxxxxx |xxxxxxxxxxxxx |xxxxxxxxxxxxx |           70 |           70 |           70 |xxxxxxxxxxxxx |xxxxxxxxxxxxx |xxxxxxxxxxxxx |xxxxxxxxxxxxx |           70 |           70 |           70 |xxxxxxxxxxxxx |xxxxxxxxxxxxx |xxxxxxxxxxxxx |xxxxxxxxxxxxx |           70 |           70 |           70 |xxxxxxxxxxxxx |xxxxxxxxxxxxx |xxxxxxxxxxxxx |xxxxxxxxxxxxx |           70 |           70 |           70 |xxxxxxxxxxxxx |xxxxxxxxxxxxx |xxxxxxxxxxxxx |xxxxxxxxxxxxx |           70 |           70 |           70 |xxxxxxxxxxxxx |xxxxxxxxxxxxx |xxxxxxxxxxxxx |xxxxxxxxxxxxx |           70 |           70 |           70 |xxxxxxxxxxxxx |xxxxxxxxxxxxx |xxxxxxxxxxxxx |xxxxxxxxxxxxx |           72 |           72 |           72 |xxxxxxxxxxxxx |xxxxxxxxxxxxx |xxxxxxxxxxxxx |xxxxxxxxxxxxx |           72 |           72 |           72 |xxxxxxxxxxxxx |xxxxxxxxxxxxx |xxxxxxxxxxxxx |xxxxxxxxxxxxx |           72 |           72 |           72 |
bpred_bimod.used_ras.PP                         61 |           61 |           61 |xxxxxxxxxxxxx |xxxxxxxxxxxxx |xxxxxxxxxxxxx |xxxxxxxxxxxxx |           70 |           70 |           70 |xxxxxxxxxxxxx |xxxxxxxxxxxxx |xxxxxxxxxxxxx |xxxxxxxxxxxxx |           70 |           70 |           70 |xxxxxxxxxxxxx |xxxxxxxxxxxxx |xxxxxxxxxxxxx |xxxxxxxxxxxxx |           70 |           70 |           70 |xxxxxxxxxxxxx |xxxxxxxxxxxxx |xxxxxxxxxxxxx |xxxxxxxxxxxxx |           70 |           70 |           70 |xxxxxxxxxxxxx |xxxxxxxxxxxxx |xxxxxxxxxxxxx |xxxxxxxxxxxxx |           70 |           70 |           70 |xxxxxxxxxxxxx |xxxxxxxxxxxxx |xxxxxxxxxxxxx |xxxxxxxxxxxxx |           70 |           70 |           70 |xxxxxxxxxxxxx |xxxxxxxxxxxxx |xxxxxxxxxxxxx |xxxxxxxxxxxxx |           70 |           70 |           70 |xxxxxxxxxxxxx |xxxxxxxxxxxxx |xxxxxxxxxxxxx |xxxxxxxxxxxxx |           72 |           72 |           72 |xxxxxxxxxxxxx |xxxxxxxxxxxxx |xxxxxxxxxxxxx |xxxxxxxxxxxxx |           72 |           72 |           72 |xxxxxxxxxxxxx |xxxxxxxxxxxxx |xxxxxxxxxxxxx |xxxxxxxxxxxxx |           72 |           72 |           72 |
bpred_bimod.ras_hits.PP                         61 |           61 |           61 |xxxxxxxxxxxxx |xxxxxxxxxxxxx |xxxxxxxxxxxxx |xxxxxxxxxxxxx |           69 |           69 |           69 |xxxxxxxxxxxxx |xxxxxxxxxxxxx |xxxxxxxxxxxxx |xxxxxxxxxxxxx |           69 |           69 |           69 |xxxxxxxxxxxxx |xxxxxxxxxxxxx |xxxxxxxxxxxxx |xxxxxxxxxxxxx |           69 |           69 |           69 |xxxxxxxxxxxxx |xxxxxxxxxxxxx |xxxxxxxxxxxxx |xxxxxxxxxxxxx |           69 |           69 |           69 |xxxxxxxxxxxxx |xxxxxxxxxxxxx |xxxxxxxxxxxxx |xxxxxxxxxxxxx |           69 |           69 |           69 |xxxxxxxxxxxxx |xxxxxxxxxxxxx |xxxxxxxxxxxxx |xxxxxxxxxxxxx |           69 |           69 |           69 |xxxxxxxxxxxxx |xxxxxxxxxxxxx |xxxxxxxxxxxxx |xxxxxxxxxxxxx |           69 |           69 |           69 |xxxxxxxxxxxxx |xxxxxxxxxxxxx |xxxxxxxxxxxxx |xxxxxxxxxxxxx |           72 |           72 |           72 |xxxxxxxxxxxxx |xxxxxxxxxxxxx |xxxxxxxxxxxxx |xxxxxxxxxxxxx |           72 |           72 |           72 |xxxxxxxxxxxxx |xxxxxxxxxxxxx |xxxxxxxxxxxxx |xxxxxxxxxxxxx |           72 |           72 |           72 |
bpred_bimod.ras_rate.PP                     1.0000 |       1.0000 |       1.0000 |xxxxxxxxxxxxx |xxxxxxxxxxxxx |xxxxxxxxxxxxx |xxxxxxxxxxxxx |       0.9857 |       0.9857 |       0.9857 |xxxxxxxxxxxxx |xxxxxxxxxxxxx |xxxxxxxxxxxxx |xxxxxxxxxxxxx |       0.9857 |       0.9857 |       0.9857 |xxxxxxxxxxxxx |xxxxxxxxxxxxx |xxxxxxxxxxxxx |xxxxxxxxxxxxx |       0.9857 |       0.9857 |       0.9857 |xxxxxxxxxxxxx |xxxxxxxxxxxxx |xxxxxxxxxxxxx |xxxxxxxxxxxxx |       0.9857 |       0.9857 |       0.9857 |xxxxxxxxxxxxx |xxxxxxxxxxxxx |xxxxxxxxxxxxx |xxxxxxxxxxxxx |       0.9857 |       0.9857 |       0.9857 |xxxxxxxxxxxxx |xxxxxxxxxxxxx |xxxxxxxxxxxxx |xxxxxxxxxxxxx |       0.9857 |       0.9857 |       0.9857 |xxxxxxxxxxxxx |xxxxxxxxxxxxx |xxxxxxxxxxxxx |xxxxxxxxxxxxx |       0.9857 |       0.9857 |       0.9857 |xxxxxxxxxxxxx |xxxxxxxxxxxxx |xxxxxxxxxxxxx |xxxxxxxxxxxxx |       1.0000 |       1.0000 |       1.0000 |xxxxxxxxxxxxx |xxxxxxxxxxxxx |xxxxxxxxxxxxx |xxxxxxxxxxxxx |       1.0000 |       1.0000 |       1.0000 |xxxxxxxxxxxxx |xxxxxxxxxxxxx |xxxxxxxxxxxxx |xxxxxxxxxxxxx |       1.0000 |       1.0000 |       1.0000 |
bpred_2lev.lookups                   xxxxxxxxxxxxx |xxxxxxxxxxxxx |xxxxxxxxxxxxx |         9241 |         9241 |         9241 |         9241 |xxxxxxxxxxxxx |xxxxxxxxxxxxx |xxxxxxxxxxxxx |        17473 |        17473 |        17473 |        17473 |xxxxxxxxxxxxx |xxxxxxxxxxxxx |xxxxxxxxxxxxx |        33857 |        33857 |        33857 |        33857 |xxxxxxxxxxxxx |xxxxxxxxxxxxx |xxxxxxxxxxxxx |        66625 |        66625 |        66625 |        66625 |xxxxxxxxxxxxx |xxxxxxxxxxxxx |xxxxxxxxxxxxx |       132161 |       132161 |       132161 |       132161 |xxxxxxxxxxxxx |xxxxxxxxxxxxx |xxxxxxxxxxxxx |       263233 |       263233 |       263233 |       263233 |xxxxxxxxxxxxx |xxxxxxxxxxxxx |xxxxxxxxxxxxx |       525377 |       525377 |       525377 |       525377 |xxxxxxxxxxxxx |xxxxxxxxxxxxx |xxxxxxxxxxxxx |      1049665 |      1049665 |      1049665 |      1049665 |xxxxxxxxxxxxx |xxxxxxxxxxxxx |xxxxxxxxxxxxx |      2099034 |      2099034 |      2099034 |      2099034 |xxxxxxxxxxxxx |xxxxxxxxxxxxx |xxxxxxxxxxxxx |      4196957 |      4196957 |      4196957 |      4196957 |xxxxxxxxxxxxx |xxxxxxxxxxxxx |xxxxxxxxxxxxx |      8392800 |      8392800 |      8392800 |      8392800 |
[...]
bpred_2lev.retstack_pops             xxxxxxxxxxxxx |xxxxxxxxxxxxx |xxxxxxxxxxxxx |           61 |           61 |           61 |           61 |xxxxxxxxxxxxx |xxxxxxxxxxxxx |xxxxxxxxxxxxx |           70 |           70 |           70 |           70 |xxxxxxxxxxxxx |xxxxxxxxxxxxx |xxxxxxxxxxxxx |           70 |           70 |           70 |           70 |xxxxxxxxxxxxx |xxxxxxxxxxxxx |xxxxxxxxxxxxx |           70 |           70 |           70 |           70 |xxxxxxxxxxxxx |xxxxxxxxxxxxx |xxxxxxxxxxxxx |           70 |           70 |           70 |           70 |xxxxxxxxxxxxx |xxxxxxxxxxxxx |xxxxxxxxxxxxx |           70 |           70 |           70 |           70 |xxxxxxxxxxxxx |xxxxxxxxxxxxx |xxxxxxxxxxxxx |           70 |           70 |           70 |           70 |xxxxxxxxxxxxx |xxxxxxxxxxxxx |xxxxxxxxxxxxx |           70 |           70 |           70 |           70 |xxxxxxxxxxxxx |xxxxxxxxxxxxx |xxxxxxxxxxxxx |           72 |           72 |           72 |           72 |xxxxxxxxxxxxx |xxxxxxxxxxxxx |xxxxxxxxxxxxx |           72 |           72 |           72 |           72 |xxxxxxxxxxxxx |xxxxxxxxxxxxx |xxxxxxxxxxxxx |           72 |           72 |           72 |           72 |
bpred_2lev.used_ras.PP               xxxxxxxxxxxxx |xxxxxxxxxxxxx |xxxxxxxxxxxxx |           61 |           61 |           61 |           61 |xxxxxxxxxxxxx |xxxxxxxxxxxxx |xxxxxxxxxxxxx |           70 |           70 |           70 |           70 |xxxxxxxxxxxxx |xxxxxxxxxxxxx |xxxxxxxxxxxxx |           70 |           70 |           70 |           70 |xxxxxxxxxxxxx |xxxxxxxxxxxxx |xxxxxxxxxxxxx |           70 |           70 |           70 |           70 |xxxxxxxxxxxxx |xxxxxxxxxxxxx |xxxxxxxxxxxxx |           70 |           70 |           70 |           70 |xxxxxxxxxxxxx |xxxxxxxxxxxxx |xxxxxxxxxxxxx |           70 |           70 |           70 |           70 |xxxxxxxxxxxxx |xxxxxxxxxxxxx |xxxxxxxxxxxxx |           70 |           70 |           70 |           70 |xxxxxxxxxxxxx |xxxxxxxxxxxxx |xxxxxxxxxxxxx |           70 |           70 |           70 |           70 |xxxxxxxxxxxxx |xxxxxxxxxxxxx |xxxxxxxxxxxxx |           72 |           72 |           72 |           72 |xxxxxxxxxxxxx |xxxxxxxxxxxxx |xxxxxxxxxxxxx |           72 |           72 |           72 |           72 |xxxxxxxxxxxxx |xxxxxxxxxxxxx |xxxxxxxxxxxxx |           72 |           72 |           72 |           72 |
bpred_2lev.ras_hits.PP               xxxxxxxxxxxxx |xxxxxxxxxxxxx |xxxxxxxxxxxxx |           61 |           61 |           61 |           61 |xxxxxxxxxxxxx |xxxxxxxxxxxxx |xxxxxxxxxxxxx |           69 |           69 |           69 |           69 |xxxxxxxxxxxxx |xxxxxxxxxxxxx |xxxxxxxxxxxxx |           69 |           69 |           69 |           69 |xxxxxxxxxxxxx |xxxxxxxxxxxxx |xxxxxxxxxxxxx |           69 |           69 |           69 |           69 |xxxxxxxxxxxxx |xxxxxxxxxxxxx |xxxxxxxxxxxxx |           69 |           69 |           69 |           69 |xxxxxxxxxxxxx |xxxxxxxxxxxxx |xxxxxxxxxxxxx |           69 |           69 |           69 |           69 |xxxxxxxxxxxxx |xxxxxxxxxxxxx |xxxxxxxxxxxxx |           69 |           69 |           69 |           69 |xxxxxxxxxxxxx |xxxxxxxxxxxxx |xxxxxxxxxxxxx |           69 |           69 |           69 |           69 |xxxxxxxxxxxxx |xxxxxxxxxxxxx |xxxxxxxxxxxxx |           72 |           72 |           72 |           72 |xxxxxxxxxxxxx |xxxxxxxxxxxxx |xxxxxxxxxxxxx |           72 |           72 |           72 |           72 |xxxxxxxxxxxxx |xxxxxxxxxxxxx |xxxxxxxxxxxxx |           72 |           72 |           72 |           72 |
bpred_2lev.ras_rate.PP               xxxxxxxxxxxxx |xxxxxxxxxxxxx |xxxxxxxxxxxxx |       1.0000 |       1.0000 |       1.0000 |       1.0000 |xxxxxxxxxxxxx |xxxxxxxxxxxxx |xxxxxxxxxxxxx |       0.9857 |       0.9857 |       0.9857 |       0.9857 |xxxxxxxxxxxxx |xxxxxxxxxxxxx |xxxxxxxxxxxxx |       0.9857 |       0.9857 |       0.9857 |       0.9857 |xxxxxxxxxxxxx |xxxxxxxxxxxxx |xxxxxxxxxxxxx |       0.9857 |       0.9857 |       0.9857 |       0.9857 |xxxxxxxxxxxxx |xxxxxxxxxxxxx |xxxxxxxxxxxxx |       0.9857 |       0.9857 |       0.9857 |       0.9857 |xxxxxxxxxxxxx |xxxxxxxxxxxxx |xxxxxxxxxxxxx |       0.9857 |       0.9857 |       0.9857 |       0.9857 |xxxxxxxxxxxxx |xxxxxxxxxxxxx |xxxxxxxxxxxxx |       0.9857 |       0.9857 |       0.9857 |       0.9857 |xxxxxxxxxxxxx |xxxxxxxxxxxxx |xxxxxxxxxxxxx |       0.9857 |       0.9857 |       0.9857 |       0.9857 |xxxxxxxxxxxxx |xxxxxxxxxxxxx |xxxxxxxxxxxxx |       1.0000 |       1.0000 |       1.0000 |       1.0000 |xxxxxxxxxxxxx |xxxxxxxxxxxxx |xxxxxxxxxxxxx |       1.0000 |       1.0000 |       1.0000 |       1.0000 |xxxxxxxxxxxxx |xxxxxxxxxxxxx |xxxxxxxxxxxxx |       1.0000 |       1.0000 |       1.0000 |       1.0000 |

Command list: 
	sslittle-na-sstrix-gcc -Wall -O3 -funroll-loops -finline-functions  -DRANDOM_SIZE=4096 -DOFFSET=4 -DSORT=memory_tuned_radixsort sorts/memory_tuned_radixsort528873661.c simpleMain.c -o memory_tuned_radixsort1526633370
	sim-cache -cache:dl1 dl1:256:32:1:l -cache:dl2 dl2:131072:32:1:l -cache:il1 il1:256:32:1:l -cache:il2 dl2 memory_tuned_radixsort1526633370
	sim-cache -cache:dl1 dl1:256:32:1:l -cache:dl2 dl2:65536:32:1:l -cache:il1 il1:256:32:1:l -cache:il2 dl2 memory_tuned_radixsort1526633370
	sim-cache -cache:dl1 dl1:1:32:256:l -cache:dl2 dl2:1:32:131072:l -cache:il1 il1:1:32:256:l -cache:il2 dl2 memory_tuned_radixsort1526633370
	sim-cache -cache:dl1 dl1:1:32:256:l -cache:dl2 dl2:1:32:65536:l -cache:il1 il1:1:32:256:l -cache:il2 dl2 memory_tuned_radixsort1526633370
	sim-bpred -bpred bimod -bpred:bimod 512 memory_tuned_radixsort1526633370
	sim-bpred -bpred bimod -bpred:bimod 1024 memory_tuned_radixsort1526633370
	sim-bpred -bpred bimod -bpred:bimod 2048 memory_tuned_radixsort1526633370
	sim-bpred -bpred 2lev -bpred:2lev 1 512 10 1 memory_tuned_radixsort1526633370
	sim-bpred -bpred 2lev -bpred:2lev 1 1024 10 1 memory_tuned_radixsort1526633370
	sim-bpred -bpred 2lev -bpred:2lev 1 2048 10 1 memory_tuned_radixsort1526633370
	sim-bpred -bpred 2lev -bpred:2lev 1 4096 10 1 memory_tuned_radixsort1526633370
	sslittle-na-sstrix-gcc -Wall -O3 -funroll-loops -finline-functions  -DRANDOM_SIZE=8192 -DOFFSET=4 -DSORT=memory_tuned_radixsort sorts/memory_tuned_radixsort528873661.c simpleMain.c -o memory_tuned_radixsort1526633370
	sim-cache -cache:dl1 dl1:256:32:1:l -cache:dl2 dl2:131072:32:1:l -cache:il1 il1:256:32:1:l -cache:il2 dl2 memory_tuned_radixsort1526633370
	sim-cache -cache:dl1 dl1:256:32:1:l -cache:dl2 dl2:65536:32:1:l -cache:il1 il1:256:32:1:l -cache:il2 dl2 memory_tuned_radixsort1526633370
	sim-cache -cache:dl1 dl1:1:32:256:l -cache:dl2 dl2:1:32:131072:l -cache:il1 il1:1:32:256:l -cache:il2 dl2 memory_tuned_radixsort1526633370
	sim-cache -cache:dl1 dl1:1:32:256:l -cache:dl2 dl2:1:32:65536:l -cache:il1 il1:1:32:256:l -cache:il2 dl2 memory_tuned_radixsort1526633370
	sim-bpred -bpred bimod -bpred:bimod 512 memory_tuned_radixsort1526633370
	sim-bpred -bpred bimod -bpred:bimod 1024 memory_tuned_radixsort1526633370
	sim-bpred -bpred bimod -bpred:bimod 2048 memory_tuned_radixsort1526633370
	sim-bpred -bpred 2lev -bpred:2lev 1 512 10 1 memory_tuned_radixsort1526633370
	sim-bpred -bpred 2lev -bpred:2lev 1 1024 10 1 memory_tuned_radixsort1526633370
	sim-bpred -bpred 2lev -bpred:2lev 1 2048 10 1 memory_tuned_radixsort1526633370
	sim-bpred -bpred 2lev -bpred:2lev 1 4096 10 1 memory_tuned_radixsort1526633370
	sslittle-na-sstrix-gcc -Wall -O3 -funroll-loops -finline-functions  -DRANDOM_SIZE=16384 -DOFFSET=4 -DSORT=memory_tuned_radixsort sorts/memory_tuned_radixsort528873661.c simpleMain.c -o memory_tuned_radixsort1526633370
	sim-cache -cache:dl1 dl1:256:32:1:l -cache:dl2 dl2:131072:32:1:l -cache:il1 il1:256:32:1:l -cache:il2 dl2 memory_tuned_radixsort1526633370
	sim-cache -cache:dl1 dl1:256:32:1:l -cache:dl2 dl2:65536:32:1:l -cache:il1 il1:256:32:1:l -cache:il2 dl2 memory_tuned_radixsort1526633370
	sim-cache -cache:dl1 dl1:1:32:256:l -cache:dl2 dl2:1:32:131072:l -cache:il1 il1:1:32:256:l -cache:il2 dl2 memory_tuned_radixsort1526633370
	sim-cache -cache:dl1 dl1:1:32:256:l -cache:dl2 dl2:1:32:65536:l -cache:il1 il1:1:32:256:l -cache:il2 dl2 memory_tuned_radixsort1526633370
	sim-bpred -bpred bimod -bpred:bimod 512 memory_tuned_radixsort1526633370
	sim-bpred -bpred bimod -bpred:bimod 1024 memory_tuned_radixsort1526633370
	sim-bpred -bpred bimod -bpred:bimod 2048 memory_tuned_radixsort1526633370
	sim-bpred -bpred 2lev -bpred:2lev 1 512 10 1 memory_tuned_radixsort1526633370
	sim-bpred -bpred 2lev -bpred:2lev 1 1024 10 1 memory_tuned_radixsort1526633370
	sim-bpred -bpred 2lev -bpred:2lev 1 2048 10 1 memory_tuned_radixsort1526633370
	sim-bpred -bpred 2lev -bpred:2lev 1 4096 10 1 memory_tuned_radixsort1526633370
	sslittle-na-sstrix-gcc -Wall -O3 -funroll-loops -finline-functions  -DRANDOM_SIZE=32768 -DOFFSET=4 -DSORT=memory_tuned_radixsort sorts/memory_tuned_radixsort528873661.c simpleMain.c -o memory_tuned_radixsort1526633370
	sim-cache -cache:dl1 dl1:256:32:1:l -cache:dl2 dl2:131072:32:1:l -cache:il1 il1:256:32:1:l -cache:il2 dl2 memory_tuned_radixsort1526633370
	sim-cache -cache:dl1 dl1:256:32:1:l -cache:dl2 dl2:65536:32:1:l -cache:il1 il1:256:32:1:l -cache:il2 dl2 memory_tuned_radixsort1526633370
	sim-cache -cache:dl1 dl1:1:32:256:l -cache:dl2 dl2:1:32:131072:l -cache:il1 il1:1:32:256:l -cache:il2 dl2 memory_tuned_radixsort1526633370
	sim-cache -cache:dl1 dl1:1:32:256:l -cache:dl2 dl2:1:32:65536:l -cache:il1 il1:1:32:256:l -cache:il2 dl2 memory_tuned_radixsort1526633370
	sim-bpred -bpred bimod -bpred:bimod 512 memory_tuned_radixsort1526633370
	sim-bpred -bpred bimod -bpred:bimod 1024 memory_tuned_radixsort1526633370
	sim-bpred -bpred bimod -bpred:bimod 2048 memory_tuned_radixsort1526633370
	sim-bpred -bpred 2lev -bpred:2lev 1 512 10 1 memory_tuned_radixsort1526633370
	sim-bpred -bpred 2lev -bpred:2lev 1 1024 10 1 memory_tuned_radixsort1526633370
	sim-bpred -bpred 2lev -bpred:2lev 1 2048 10 1 memory_tuned_radixsort1526633370
	sim-bpred -bpred 2lev -bpred:2lev 1 4096 10 1 memory_tuned_radixsort1526633370
	sslittle-na-sstrix-gcc -Wall -O3 -funroll-loops -finline-functions  -DRANDOM_SIZE=65536 -DOFFSET=4 -DSORT=memory_tuned_radixsort sorts/memory_tuned_radixsort528873661.c simpleMain.c -o memory_tuned_radixsort1526633370
	sim-cache -cache:dl1 dl1:256:32:1:l -cache:dl2 dl2:131072:32:1:l -cache:il1 il1:256:32:1:l -cache:il2 dl2 memory_tuned_radixsort1526633370
	sim-cache -cache:dl1 dl1:256:32:1:l -cache:dl2 dl2:65536:32:1:l -cache:il1 il1:256:32:1:l -cache:il2 dl2 memory_tuned_radixsort1526633370
	sim-cache -cache:dl1 dl1:1:32:256:l -cache:dl2 dl2:1:32:131072:l -cache:il1 il1:1:32:256:l -cache:il2 dl2 memory_tuned_radixsort1526633370
	sim-cache -cache:dl1 dl1:1:32:256:l -cache:dl2 dl2:1:32:65536:l -cache:il1 il1:1:32:256:l -cache:il2 dl2 memory_tuned_radixsort1526633370
	sim-bpred -bpred bimod -bpred:bimod 512 memory_tuned_radixsort1526633370
	sim-bpred -bpred bimod -bpred:bimod 1024 memory_tuned_radixsort1526633370
	sim-bpred -bpred bimod -bpred:bimod 2048 memory_tuned_radixsort1526633370
	sim-bpred -bpred 2lev -bpred:2lev 1 512 10 1 memory_tuned_radixsort1526633370
	sim-bpred -bpred 2lev -bpred:2lev 1 1024 10 1 memory_tuned_radixsort1526633370
	sim-bpred -bpred 2lev -bpred:2lev 1 2048 10 1 memory_tuned_radixsort1526633370
	sim-bpred -bpred 2lev -bpred:2lev 1 4096 10 1 memory_tuned_radixsort1526633370
	sslittle-na-sstrix-gcc -Wall -O3 -funroll-loops -finline-functions  -DRANDOM_SIZE=131072 -DOFFSET=4 -DSORT=memory_tuned_radixsort sorts/memory_tuned_radixsort528873661.c simpleMain.c -o memory_tuned_radixsort1526633370
	sim-cache -cache:dl1 dl1:256:32:1:l -cache:dl2 dl2:131072:32:1:l -cache:il1 il1:256:32:1:l -cache:il2 dl2 memory_tuned_radixsort1526633370
	sim-cache -cache:dl1 dl1:256:32:1:l -cache:dl2 dl2:65536:32:1:l -cache:il1 il1:256:32:1:l -cache:il2 dl2 memory_tuned_radixsort1526633370
	sim-cache -cache:dl1 dl1:1:32:256:l -cache:dl2 dl2:1:32:131072:l -cache:il1 il1:1:32:256:l -cache:il2 dl2 memory_tuned_radixsort1526633370
	sim-cache -cache:dl1 dl1:1:32:256:l -cache:dl2 dl2:1:32:65536:l -cache:il1 il1:1:32:256:l -cache:il2 dl2 memory_tuned_radixsort1526633370
	sim-bpred -bpred bimod -bpred:bimod 512 memory_tuned_radixsort1526633370
	sim-bpred -bpred bimod -bpred:bimod 1024 memory_tuned_radixsort1526633370
	sim-bpred -bpred bimod -bpred:bimod 2048 memory_tuned_radixsort1526633370
	sim-bpred -bpred 2lev -bpred:2lev 1 512 10 1 memory_tuned_radixsort1526633370
	sim-bpred -bpred 2lev -bpred:2lev 1 1024 10 1 memory_tuned_radixsort1526633370
	sim-bpred -bpred 2lev -bpred:2lev 1 2048 10 1 memory_tuned_radixsort1526633370
	sim-bpred -bpred 2lev -bpred:2lev 1 4096 10 1 memory_tuned_radixsort1526633370
	sslittle-na-sstrix-gcc -Wall -O3 -funroll-loops -finline-functions  -DRANDOM_SIZE=262144 -DOFFSET=4 -DSORT=memory_tuned_radixsort sorts/memory_tuned_radixsort528873661.c simpleMain.c -o memory_tuned_radixsort1526633370
	sim-cache -cache:dl1 dl1:256:32:1:l -cache:dl2 dl2:131072:32:1:l -cache:il1 il1:256:32:1:l -cache:il2 dl2 memory_tuned_radixsort1526633370
	sim-cache -cache:dl1 dl1:256:32:1:l -cache:dl2 dl2:65536:32:1:l -cache:il1 il1:256:32:1:l -cache:il2 dl2 memory_tuned_radixsort1526633370
	sim-cache -cache:dl1 dl1:1:32:256:l -cache:dl2 dl2:1:32:131072:l -cache:il1 il1:1:32:256:l -cache:il2 dl2 memory_tuned_radixsort1526633370
	sim-cache -cache:dl1 dl1:1:32:256:l -cache:dl2 dl2:1:32:65536:l -cache:il1 il1:1:32:256:l -cache:il2 dl2 memory_tuned_radixsort1526633370
	sim-bpred -bpred bimod -bpred:bimod 512 memory_tuned_radixsort1526633370
	sim-bpred -bpred bimod -bpred:bimod 1024 memory_tuned_radixsort1526633370
	sim-bpred -bpred bimod -bpred:bimod 2048 memory_tuned_radixsort1526633370
	sim-bpred -bpred 2lev -bpred:2lev 1 512 10 1 memory_tuned_radixsort1526633370
	sim-bpred -bpred 2lev -bpred:2lev 1 1024 10 1 memory_tuned_radixsort1526633370
	sim-bpred -bpred 2lev -bpred:2lev 1 2048 10 1 memory_tuned_radixsort1526633370
	sim-bpred -bpred 2lev -bpred:2lev 1 4096 10 1 memory_tuned_radixsort1526633370
	sslittle-na-sstrix-gcc -Wall -O3 -funroll-loops -finline-functions  -DRANDOM_SIZE=524288 -DOFFSET=4 -DSORT=memory_tuned_radixsort sorts/memory_tuned_radixsort528873661.c simpleMain.c -o memory_tuned_radixsort1526633370
	sim-cache -cache:dl1 dl1:256:32:1:l -cache:dl2 dl2:131072:32:1:l -cache:il1 il1:256:32:1:l -cache:il2 dl2 memory_tuned_radixsort1526633370
	sim-cache -cache:dl1 dl1:256:32:1:l -cache:dl2 dl2:65536:32:1:l -cache:il1 il1:256:32:1:l -cache:il2 dl2 memory_tuned_radixsort1526633370
	sim-cache -cache:dl1 dl1:1:32:256:l -cache:dl2 dl2:1:32:131072:l -cache:il1 il1:1:32:256:l -cache:il2 dl2 memory_tuned_radixsort1526633370
	sim-cache -cache:dl1 dl1:1:32:256:l -cache:dl2 dl2:1:32:65536:l -cache:il1 il1:1:32:256:l -cache:il2 dl2 memory_tuned_radixsort1526633370
	sim-bpred -bpred bimod -bpred:bimod 512 memory_tuned_radixsort1526633370
	sim-bpred -bpred bimod -bpred:bimod 1024 memory_tuned_radixsort1526633370
	sim-bpred -bpred bimod -bpred:bimod 2048 memory_tuned_radixsort1526633370
	sim-bpred -bpred 2lev -bpred:2lev 1 512 10 1 memory_tuned_radixsort1526633370
	sim-bpred -bpred 2lev -bpred:2lev 1 1024 10 1 memory_tuned_radixsort1526633370
	sim-bpred -bpred 2lev -bpred:2lev 1 2048 10 1 memory_tuned_radixsort1526633370
	sim-bpred -bpred 2lev -bpred:2lev 1 4096 10 1 memory_tuned_radixsort1526633370
	sslittle-na-sstrix-gcc -Wall -O3 -funroll-loops -finline-functions  -DRANDOM_SIZE=1048576 -DOFFSET=4 -DSORT=memory_tuned_radixsort sorts/memory_tuned_radixsort528873661.c simpleMain.c -o memory_tuned_radixsort1526633370
	sim-cache -cache:dl1 dl1:256:32:1:l -cache:dl2 dl2:131072:32:1:l -cache:il1 il1:256:32:1:l -cache:il2 dl2 memory_tuned_radixsort1526633370
	sim-cache -cache:dl1 dl1:256:32:1:l -cache:dl2 dl2:65536:32:1:l -cache:il1 il1:256:32:1:l -cache:il2 dl2 memory_tuned_radixsort1526633370
	sim-cache -cache:dl1 dl1:1:32:256:l -cache:dl2 dl2:1:32:131072:l -cache:il1 il1:1:32:256:l -cache:il2 dl2 memory_tuned_radixsort1526633370
	sim-cache -cache:dl1 dl1:1:32:256:l -cache:dl2 dl2:1:32:65536:l -cache:il1 il1:1:32:256:l -cache:il2 dl2 memory_tuned_radixsort1526633370
	sim-bpred -bpred bimod -bpred:bimod 512 memory_tuned_radixsort1526633370
	sim-bpred -bpred bimod -bpred:bimod 1024 memory_tuned_radixsort1526633370
	sim-bpred -bpred bimod -bpred:bimod 2048 memory_tuned_radixsort1526633370
	sim-bpred -bpred 2lev -bpred:2lev 1 512 10 1 memory_tuned_radixsort1526633370
	sim-bpred -bpred 2lev -bpred:2lev 1 1024 10 1 memory_tuned_radixsort1526633370
	sim-bpred -bpred 2lev -bpred:2lev 1 2048 10 1 memory_tuned_radixsort1526633370
	sim-bpred -bpred 2lev -bpred:2lev 1 4096 10 1 memory_tuned_radixsort1526633370
	sslittle-na-sstrix-gcc -Wall -O3 -funroll-loops -finline-functions  -DRANDOM_SIZE=2097152 -DOFFSET=4 -DSORT=memory_tuned_radixsort sorts/memory_tuned_radixsort528873661.c simpleMain.c -o memory_tuned_radixsort1526633370
	sim-cache -cache:dl1 dl1:256:32:1:l -cache:dl2 dl2:131072:32:1:l -cache:il1 il1:256:32:1:l -cache:il2 dl2 memory_tuned_radixsort1526633370
	sim-cache -cache:dl1 dl1:256:32:1:l -cache:dl2 dl2:65536:32:1:l -cache:il1 il1:256:32:1:l -cache:il2 dl2 memory_tuned_radixsort1526633370
	sim-cache -cache:dl1 dl1:1:32:256:l -cache:dl2 dl2:1:32:131072:l -cache:il1 il1:1:32:256:l -cache:il2 dl2 memory_tuned_radixsort1526633370
	sim-cache -cache:dl1 dl1:1:32:256:l -cache:dl2 dl2:1:32:65536:l -cache:il1 il1:1:32:256:l -cache:il2 dl2 memory_tuned_radixsort1526633370
	sim-bpred -bpred bimod -bpred:bimod 512 memory_tuned_radixsort1526633370
	sim-bpred -bpred bimod -bpred:bimod 1024 memory_tuned_radixsort1526633370
	sim-bpred -bpred bimod -bpred:bimod 2048 memory_tuned_radixsort1526633370
	sim-bpred -bpred 2lev -bpred:2lev 1 512 10 1 memory_tuned_radixsort1526633370
	sim-bpred -bpred 2lev -bpred:2lev 1 1024 10 1 memory_tuned_radixsort1526633370
	sim-bpred -bpred 2lev -bpred:2lev 1 2048 10 1 memory_tuned_radixsort1526633370
	sim-bpred -bpred 2lev -bpred:2lev 1 4096 10 1 memory_tuned_radixsort1526633370
	sslittle-na-sstrix-gcc -Wall -O3 -funroll-loops -finline-functions  -DRANDOM_SIZE=4194304 -DOFFSET=4 -DSORT=memory_tuned_radixsort sorts/memory_tuned_radixsort528873661.c simpleMain.c -o memory_tuned_radixsort1526633370
	sim-cache -cache:dl1 dl1:256:32:1:l -cache:dl2 dl2:131072:32:1:l -cache:il1 il1:256:32:1:l -cache:il2 dl2 memory_tuned_radixsort1526633370
	sim-cache -cache:dl1 dl1:256:32:1:l -cache:dl2 dl2:65536:32:1:l -cache:il1 il1:256:32:1:l -cache:il2 dl2 memory_tuned_radixsort1526633370
	sim-cache -cache:dl1 dl1:1:32:256:l -cache:dl2 dl2:1:32:131072:l -cache:il1 il1:1:32:256:l -cache:il2 dl2 memory_tuned_radixsort1526633370
	sim-cache -cache:dl1 dl1:1:32:256:l -cache:dl2 dl2:1:32:65536:l -cache:il1 il1:1:32:256:l -cache:il2 dl2 memory_tuned_radixsort1526633370
	sim-bpred -bpred bimod -bpred:bimod 512 memory_tuned_radixsort1526633370
	sim-bpred -bpred bimod -bpred:bimod 1024 memory_tuned_radixsort1526633370
	sim-bpred -bpred bimod -bpred:bimod 2048 memory_tuned_radixsort1526633370
	sim-bpred -bpred 2lev -bpred:2lev 1 512 10 1 memory_tuned_radixsort1526633370
	sim-bpred -bpred 2lev -bpred:2lev 1 1024 10 1 memory_tuned_radixsort1526633370
	sim-bpred -bpred 2lev -bpred:2lev 1 2048 10 1 memory_tuned_radixsort1526633370
	sim-bpred -bpred 2lev -bpred:2lev 1 4096 10 1 memory_tuned_radixsort1526633370
