Sat Jul  2 16:26:52 2005
Run as: "./do_simple -c random.org3 -o 3 memory_tuned4_heapsort"
-------------------------------------------------------------------------------------------------
sim-cache                                     4096 |         4096 |         4096 |         4096 |         8192 |         8192 |         8192 |         8192 |        16384 |        16384 |        16384 |        16384 |        32768 |        32768 |        32768 |        32768 |        65536 |        65536 |        65536 |        65536 |       131072 |       131072 |       131072 |       131072 |       262144 |       262144 |       262144 |       262144 |       524288 |       524288 |       524288 |       524288 |      1048576 |      1048576 |      1048576 |      1048576 |      2097152 |      2097152 |      2097152 |      2097152 |      4194304 |      4194304 |      4194304 |      4194304 |
-cache:dl1 dl1:256:32:1:l -cache:dl2 dl2:131072:32:1:l -cache:il1 il1:256:32:1:l -cache:il2 dl2
-cache:dl1 dl1:256:32:1:l -cache:dl2 dl2:65536:32:1:l -cache:il1 il1:256:32:1:l -cache:il2 dl2
-cache:dl1 dl1:1:32:256:l -cache:dl2 dl2:1:32:131072:l -cache:il1 il1:1:32:256:l -cache:il2 dl2
-cache:dl1 dl1:1:32:256:l -cache:dl2 dl2:1:32:65536:l -cache:il1 il1:1:32:256:l -cache:il2 dl2
-------------------------------------------------------------------------------------------------
sim_num_insn                                872042 |       872042 |       872042 |       872042 |      1867637 |      1867637 |      1867637 |      1867637 |      4004612 |      4004612 |      4004612 |      4004612 |      8530205 |      8530205 |      8530205 |      8530205 |     18158905 |     18158905 |     18158905 |     18158905 |     38444920 |     38444920 |     38444920 |     38444920 |     81261848 |     81261848 |     81261848 |     81261848 |    171098554 |    171098554 |    171098554 |    171098554 |    359759194 |    359759194 |    359759194 |    359759194 |    753705935 |    753705935 |    753705935 |    753705935 |   1577789016 |   1577789016 |   1577789016 |   1577789016 |
sim_num_refs                                218343 |       218343 |       218343 |       218343 |       464500 |       464500 |       464500 |       464500 |       991717 |       991717 |       991717 |       991717 |      2107601 |      2107601 |      2107601 |      2107601 |      4477990 |      4477990 |      4477990 |      4477990 |      9469280 |      9469280 |      9469280 |      9469280 |     19991465 |     19991465 |     19991465 |     19991465 |     42057431 |     42057431 |     42057431 |     42057431 |     88356194 |     88356194 |     88356194 |     88356194 |    184992712 |    184992712 |    184992712 |    184992712 |    386967736 |    386967736 |    386967736 |    386967736 |
sim_elapsed_time                                 1 |            1 |           10 |            5 |            1 |            1 |           15 |            7 |            1 |            1 |           26 |           13 |            3 |            2 |           47 |           25 |            5 |            5 |           88 |           44 |           11 |           11 |          162 |           75 |           23 |           23 |          279 |          108 |           49 |           49 |          389 |          138 |          102 |          102 |          452 |          199 |          215 |          215 |          582 |          328 |          456 |          452 |          856 |          603 |
sim_inst_rate                          872042.0000 |  872042.0000 |   87204.2000 |  174408.4000 | 1867637.0000 | 1867637.0000 |  124509.1333 |  266805.2857 | 4004612.0000 | 4004612.0000 |  154023.5385 |  308047.0769 | 2843401.6667 | 4265102.5000 |  181493.7234 |  341208.2000 | 3631781.0000 | 3631781.0000 |  206351.1932 |  412702.3864 | 3494992.7273 | 3494992.7273 |  237314.3210 |  512598.9333 | 3533123.8261 | 3533123.8261 |  291261.1039 |  752424.5185 | 3491807.2245 | 3491807.2245 |  439842.0411 | 1239844.5942 | 3527050.9216 | 3527050.9216 |  795927.4204 | 1807835.1457 | 3505609.0000 | 3505609.0000 | 1295027.3797 | 2297883.9482 | 3460063.6316 | 3490683.6637 | 1843211.4673 | 2616565.5323 |
il1.accesses                                872042 |       872042 |       872042 |       872042 |      1867637 |      1867637 |      1867637 |      1867637 |      4004612 |      4004612 |      4004612 |      4004612 |      8530205 |      8530205 |      8530205 |      8530205 |     18158905 |     18158905 |     18158905 |     18158905 |     38444920 |     38444920 |     38444920 |     38444920 |     81261848 |     81261848 |     81261848 |     81261848 |    171098554 |    171098554 |    171098554 |    171098554 |    359759194 |    359759194 |    359759194 |    359759194 |    753705935 |    753705935 |    753705935 |    753705935 |   1577789016 |   1577789016 |   1577789016 |   1577789016 |
il1.hits                                    871522 |       871522 |       871611 |       871611 |      1867076 |      1867076 |      1867186 |      1867186 |      4004050 |      4004050 |      4004164 |      4004164 |      8529646 |      8529646 |      8529753 |      8529753 |     18158346 |     18158346 |     18158453 |     18158453 |     38444361 |     38444361 |     38444469 |     38444469 |     81261289 |     81261289 |     81261397 |     81261397 |    171097995 |    171097995 |    171098103 |    171098103 |    359758599 |    359758599 |    359758712 |    359758712 |    753705340 |    753705340 |    753705453 |    753705453 |   1577788421 |   1577788421 |   1577788534 |   1577788534 |
il1.misses                                     520 |          520 |          431 |          431 |          561 |          561 |          451 |          451 |          562 |          562 |          448 |          448 |          559 |          559 |          452 |          452 |          559 |          559 |          452 |          452 |          559 |          559 |          451 |          451 |          559 |          559 |          451 |          451 |          559 |          559 |          451 |          451 |          595 |          595 |          482 |          482 |          595 |          595 |          482 |          482 |          595 |          595 |          482 |          482 |
il1.replacements                               307 |          307 |          175 |          175 |          340 |          340 |          195 |          195 |          341 |          341 |          192 |          192 |          338 |          338 |          196 |          196 |          338 |          338 |          196 |          196 |          338 |          338 |          195 |          195 |          338 |          338 |          195 |          195 |          338 |          338 |          195 |          195 |          379 |          379 |          226 |          226 |          379 |          379 |          226 |          226 |          379 |          379 |          226 |          226 |
il1.writebacks                                   0 |            0 |            0 |            0 |            0 |            0 |            0 |            0 |            0 |            0 |            0 |            0 |            0 |            0 |            0 |            0 |            0 |            0 |            0 |            0 |            0 |            0 |            0 |            0 |            0 |            0 |            0 |            0 |            0 |            0 |            0 |            0 |            0 |            0 |            0 |            0 |            0 |            0 |            0 |            0 |            0 |            0 |            0 |            0 |
il1.invalidations                                0 |            0 |            0 |            0 |            0 |            0 |            0 |            0 |            0 |            0 |            0 |            0 |            0 |            0 |            0 |            0 |            0 |            0 |            0 |            0 |            0 |            0 |            0 |            0 |            0 |            0 |            0 |            0 |            0 |            0 |            0 |            0 |            0 |            0 |            0 |            0 |            0 |            0 |            0 |            0 |            0 |            0 |            0 |            0 |
il1.miss_rate                               0.0006 |       0.0006 |       0.0005 |       0.0005 |       0.0003 |       0.0003 |       0.0002 |       0.0002 |       0.0001 |       0.0001 |       0.0001 |       0.0001 |       0.0001 |       0.0001 |       0.0001 |       0.0001 |       0.0000 |       0.0000 |       0.0000 |       0.0000 |       0.0000 |       0.0000 |       0.0000 |       0.0000 |       0.0000 |       0.0000 |       0.0000 |       0.0000 |       0.0000 |       0.0000 |       0.0000 |       0.0000 |       0.0000 |       0.0000 |       0.0000 |       0.0000 |       0.0000 |       0.0000 |       0.0000 |       0.0000 |       0.0000 |       0.0000 |       0.0000 |       0.0000 |
il1.repl_rate                               0.0004 |       0.0004 |       0.0002 |       0.0002 |       0.0002 |       0.0002 |       0.0001 |       0.0001 |       0.0001 |       0.0001 |       0.0000 |       0.0000 |       0.0000 |       0.0000 |       0.0000 |       0.0000 |       0.0000 |       0.0000 |       0.0000 |       0.0000 |       0.0000 |       0.0000 |       0.0000 |       0.0000 |       0.0000 |       0.0000 |       0.0000 |       0.0000 |       0.0000 |       0.0000 |       0.0000 |       0.0000 |       0.0000 |       0.0000 |       0.0000 |       0.0000 |       0.0000 |       0.0000 |       0.0000 |       0.0000 |       0.0000 |       0.0000 |       0.0000 |       0.0000 |
il1.wb_rate                                 0.0000 |       0.0000 |       0.0000 |       0.0000 |       0.0000 |       0.0000 |       0.0000 |       0.0000 |       0.0000 |       0.0000 |       0.0000 |       0.0000 |       0.0000 |       0.0000 |       0.0000 |       0.0000 |       0.0000 |       0.0000 |       0.0000 |       0.0000 |       0.0000 |       0.0000 |       0.0000 |       0.0000 |       0.0000 |       0.0000 |       0.0000 |       0.0000 |       0.0000 |       0.0000 |       0.0000 |       0.0000 |       0.0000 |       0.0000 |       0.0000 |       0.0000 |       0.0000 |       0.0000 |       0.0000 |       0.0000 |       0.0000 |       0.0000 |       0.0000 |       0.0000 |
il1.inv_rate                                0.0000 |       0.0000 |       0.0000 |       0.0000 |       0.0000 |       0.0000 |       0.0000 |       0.0000 |       0.0000 |       0.0000 |       0.0000 |       0.0000 |       0.0000 |       0.0000 |       0.0000 |       0.0000 |       0.0000 |       0.0000 |       0.0000 |       0.0000 |       0.0000 |       0.0000 |       0.0000 |       0.0000 |       0.0000 |       0.0000 |       0.0000 |       0.0000 |       0.0000 |       0.0000 |       0.0000 |       0.0000 |       0.0000 |       0.0000 |       0.0000 |       0.0000 |       0.0000 |       0.0000 |       0.0000 |       0.0000 |       0.0000 |       0.0000 |       0.0000 |       0.0000 |
dl1.accesses                                234809 |       234809 |       234809 |       234809 |       497350 |       497350 |       497350 |       497350 |      1057335 |      1057335 |      1057335 |      1057335 |      2238755 |      2238755 |      2238755 |      2238755 |      4740216 |      4740216 |      4740216 |      4740216 |      9993650 |      9993650 |      9993650 |      9993650 |     21040123 |     21040123 |     21040123 |     21040123 |     44154665 |     44154665 |     44154665 |     44154665 |     92550580 |     92550580 |     92550580 |     92550580 |    193381402 |    193381402 |    193381402 |    193381402 |    403745034 |    403745034 |    403745034 |    403745034 |
dl1.hits                                    229850 |       229850 |       230557 |       230557 |       483837 |       483837 |       485326 |       485326 |      1020342 |      1020342 |      1024537 |      1024537 |      2145799 |      2145799 |      2154151 |      2154151 |      4511540 |      4511540 |      4531760 |      4531760 |      9457624 |      9457624 |      9498805 |      9498805 |     19802179 |     19802179 |     19895925 |     19895925 |     41372214 |     41372214 |     41561390 |     41561390 |     86343111 |     86343111 |     86762507 |     86762507 |    179774775 |    179774775 |    180615719 |    180615719 |    374058970 |    374058970 |    375859764 |    375859764 |
dl1.misses                                    4959 |         4959 |         4252 |         4252 |        13513 |        13513 |        12024 |        12024 |        36993 |        36993 |        32798 |        32798 |        92956 |        92956 |        84604 |        84604 |       228676 |       228676 |       208456 |       208456 |       536026 |       536026 |       494845 |       494845 |      1237944 |      1237944 |      1144198 |      1144198 |      2782451 |      2782451 |      2593275 |      2593275 |      6207469 |      6207469 |      5788073 |      5788073 |     13606627 |     13606627 |     12765683 |     12765683 |     29686064 |     29686064 |     27885270 |     27885270 |
dl1.replacements                              4703 |         4703 |         3996 |         3996 |        13257 |        13257 |        11768 |        11768 |        36737 |        36737 |        32542 |        32542 |        92700 |        92700 |        84348 |        84348 |       228420 |       228420 |       208200 |       208200 |       535770 |       535770 |       494589 |       494589 |      1237688 |      1237688 |      1143942 |      1143942 |      2782195 |      2782195 |      2593019 |      2593019 |      6207213 |      6207213 |      5787817 |      5787817 |     13606371 |     13606371 |     12765427 |     12765427 |     29685808 |     29685808 |     27885014 |     27885014 |
dl1.writebacks                                4044 |         4044 |         3393 |         3393 |        11708 |        11708 |        10389 |        10389 |        33349 |        33349 |        29579 |        29579 |        85281 |        85281 |        77874 |        77874 |       212730 |       212730 |       194686 |       194686 |       503428 |       503428 |       467084 |       467084 |      1171002 |      1171002 |      1087830 |      1087830 |      2647306 |      2647306 |      2481038 |      2481038 |      5929398 |      5929398 |      5561801 |      5561801 |     13045132 |     13045132 |     12312778 |     12312778 |     28549592 |     28549592 |     26979066 |     26979066 |
dl1.invalidations                                0 |            0 |            0 |            0 |            0 |            0 |            0 |            0 |            0 |            0 |            0 |            0 |            0 |            0 |            0 |            0 |            0 |            0 |            0 |            0 |            0 |            0 |            0 |            0 |            0 |            0 |            0 |            0 |            0 |            0 |            0 |            0 |            0 |            0 |            0 |            0 |            0 |            0 |            0 |            0 |            0 |            0 |            0 |            0 |
dl1.miss_rate                               0.0211 |       0.0211 |       0.0181 |       0.0181 |       0.0272 |       0.0272 |       0.0242 |       0.0242 |       0.0350 |       0.0350 |       0.0310 |       0.0310 |       0.0415 |       0.0415 |       0.0378 |       0.0378 |       0.0482 |       0.0482 |       0.0440 |       0.0440 |       0.0536 |       0.0536 |       0.0495 |       0.0495 |       0.0588 |       0.0588 |       0.0544 |       0.0544 |       0.0630 |       0.0630 |       0.0587 |       0.0587 |       0.0671 |       0.0671 |       0.0625 |       0.0625 |       0.0704 |       0.0704 |       0.0660 |       0.0660 |       0.0735 |       0.0735 |       0.0691 |       0.0691 |
dl1.repl_rate                               0.0200 |       0.0200 |       0.0170 |       0.0170 |       0.0267 |       0.0267 |       0.0237 |       0.0237 |       0.0347 |       0.0347 |       0.0308 |       0.0308 |       0.0414 |       0.0414 |       0.0377 |       0.0377 |       0.0482 |       0.0482 |       0.0439 |       0.0439 |       0.0536 |       0.0536 |       0.0495 |       0.0495 |       0.0588 |       0.0588 |       0.0544 |       0.0544 |       0.0630 |       0.0630 |       0.0587 |       0.0587 |       0.0671 |       0.0671 |       0.0625 |       0.0625 |       0.0704 |       0.0704 |       0.0660 |       0.0660 |       0.0735 |       0.0735 |       0.0691 |       0.0691 |
dl1.wb_rate                                 0.0172 |       0.0172 |       0.0145 |       0.0145 |       0.0235 |       0.0235 |       0.0209 |       0.0209 |       0.0315 |       0.0315 |       0.0280 |       0.0280 |       0.0381 |       0.0381 |       0.0348 |       0.0348 |       0.0449 |       0.0449 |       0.0411 |       0.0411 |       0.0504 |       0.0504 |       0.0467 |       0.0467 |       0.0557 |       0.0557 |       0.0517 |       0.0517 |       0.0600 |       0.0600 |       0.0562 |       0.0562 |       0.0641 |       0.0641 |       0.0601 |       0.0601 |       0.0675 |       0.0675 |       0.0637 |       0.0637 |       0.0707 |       0.0707 |       0.0668 |       0.0668 |
dl1.inv_rate                                0.0000 |       0.0000 |       0.0000 |       0.0000 |       0.0000 |       0.0000 |       0.0000 |       0.0000 |       0.0000 |       0.0000 |       0.0000 |       0.0000 |       0.0000 |       0.0000 |       0.0000 |       0.0000 |       0.0000 |       0.0000 |       0.0000 |       0.0000 |       0.0000 |       0.0000 |       0.0000 |       0.0000 |       0.0000 |       0.0000 |       0.0000 |       0.0000 |       0.0000 |       0.0000 |       0.0000 |       0.0000 |       0.0000 |       0.0000 |       0.0000 |       0.0000 |       0.0000 |       0.0000 |       0.0000 |       0.0000 |       0.0000 |       0.0000 |       0.0000 |       0.0000 |
dl2.accesses                                  9523 |         9523 |         8076 |         8076 |        25782 |        25782 |        22864 |        22864 |        70904 |        70904 |        62825 |        62825 |       178796 |       178796 |       162930 |       162930 |       441965 |       441965 |       403594 |       403594 |      1040013 |      1040013 |       962380 |       962380 |      2409505 |      2409505 |      2232479 |      2232479 |      5430316 |      5430316 |      5074764 |      5074764 |     12137462 |     12137462 |     11350356 |     11350356 |     26652354 |     26652354 |     25078943 |     25078943 |     58236251 |     58236251 |     54864818 |     54864818 |
dl2.hits                                      7621 |         7621 |         6216 |         6216 |        22853 |        22853 |        19989 |        19989 |        65924 |        65924 |        57905 |        57905 |       169712 |       169712 |       153910 |       153910 |       424689 |       424689 |       386382 |       386382 |      1006354 |      1006354 |       928785 |       928785 |      2343076 |      2340556 |      2166116 |      2134568 |      5295835 |      5071921 |      4886770 |      4748258 |     11418226 |     11069511 |     10697252 |     10378513 |     24517407 |     23547965 |     23136458 |     22128906 |     52028718 |     49434755 |     48967061 |     46603212 |
dl2.misses                                    1902 |         1902 |         1860 |         1860 |         2929 |         2929 |         2875 |         2875 |         4980 |         4980 |         4920 |         4920 |         9084 |         9084 |         9020 |         9020 |        17276 |        17276 |        17212 |        17212 |        33659 |        33659 |        33595 |        33595 |        66429 |        68949 |        66363 |        97911 |       134481 |       358395 |       187994 |       326506 |       719236 |      1067951 |       653104 |       971843 |      2134947 |      3104389 |      1942485 |      2950037 |      6207533 |      8801496 |      5897757 |      8261606 |
dl2.replacements                               268 |          268 |            0 |            0 |          264 |          264 |            0 |            0 |          292 |          292 |            0 |            0 |          299 |          299 |            0 |            0 |          299 |          299 |            0 |            0 |          299 |          299 |            0 |            0 |          301 |         4495 |            0 |        32375 |         4491 |       292859 |        56922 |       260970 |       588164 |      1002415 |       522032 |       906307 |      2003875 |      3038853 |      1811413 |      2884501 |      6076461 |      8735960 |      5766685 |      8196070 |
dl2.writebacks                                 152 |          152 |            0 |            0 |          144 |          144 |            0 |            0 |          165 |          165 |            0 |            0 |          169 |          169 |            0 |            0 |          169 |          169 |            0 |            0 |          169 |          169 |            0 |            0 |          169 |         4363 |            0 |        31645 |         4361 |       228305 |        56192 |       194521 |       458005 |       854731 |       389293 |       757160 |      1708788 |      2691896 |      1513658 |      2537178 |      5382332 |      7959388 |      5071606 |      7419353 |
dl2.invalidations                                0 |            0 |            0 |            0 |            0 |            0 |            0 |            0 |            0 |            0 |            0 |            0 |            0 |            0 |            0 |            0 |            0 |            0 |            0 |            0 |            0 |            0 |            0 |            0 |            0 |            0 |            0 |            0 |            0 |            0 |            0 |            0 |            0 |            0 |            0 |            0 |            0 |            0 |            0 |            0 |            0 |            0 |            0 |            0 |
dl2.miss_rate                               0.1997 |       0.1997 |       0.2303 |       0.2303 |       0.1136 |       0.1136 |       0.1257 |       0.1257 |       0.0702 |       0.0702 |       0.0783 |       0.0783 |       0.0508 |       0.0508 |       0.0554 |       0.0554 |       0.0391 |       0.0391 |       0.0426 |       0.0426 |       0.0324 |       0.0324 |       0.0349 |       0.0349 |       0.0276 |       0.0286 |       0.0297 |       0.0439 |       0.0248 |       0.0660 |       0.0370 |       0.0643 |       0.0593 |       0.0880 |       0.0575 |       0.0856 |       0.0801 |       0.1165 |       0.0775 |       0.1176 |       0.1066 |       0.1511 |       0.1075 |       0.1506 |
dl2.repl_rate                               0.0281 |       0.0281 |       0.0000 |       0.0000 |       0.0102 |       0.0102 |       0.0000 |       0.0000 |       0.0041 |       0.0041 |       0.0000 |       0.0000 |       0.0017 |       0.0017 |       0.0000 |       0.0000 |       0.0007 |       0.0007 |       0.0000 |       0.0000 |       0.0003 |       0.0003 |       0.0000 |       0.0000 |       0.0001 |       0.0019 |       0.0000 |       0.0145 |       0.0008 |       0.0539 |       0.0112 |       0.0514 |       0.0485 |       0.0826 |       0.0460 |       0.0798 |       0.0752 |       0.1140 |       0.0722 |       0.1150 |       0.1043 |       0.1500 |       0.1051 |       0.1494 |
dl2.wb_rate                                 0.0160 |       0.0160 |       0.0000 |       0.0000 |       0.0056 |       0.0056 |       0.0000 |       0.0000 |       0.0023 |       0.0023 |       0.0000 |       0.0000 |       0.0009 |       0.0009 |       0.0000 |       0.0000 |       0.0004 |       0.0004 |       0.0000 |       0.0000 |       0.0002 |       0.0002 |       0.0000 |       0.0000 |       0.0001 |       0.0018 |       0.0000 |       0.0142 |       0.0008 |       0.0420 |       0.0111 |       0.0383 |       0.0377 |       0.0704 |       0.0343 |       0.0667 |       0.0641 |       0.1010 |       0.0604 |       0.1012 |       0.0924 |       0.1367 |       0.0924 |       0.1352 |
dl2.inv_rate                                0.0000 |       0.0000 |       0.0000 |       0.0000 |       0.0000 |       0.0000 |       0.0000 |       0.0000 |       0.0000 |       0.0000 |       0.0000 |       0.0000 |       0.0000 |       0.0000 |       0.0000 |       0.0000 |       0.0000 |       0.0000 |       0.0000 |       0.0000 |       0.0000 |       0.0000 |       0.0000 |       0.0000 |       0.0000 |       0.0000 |       0.0000 |       0.0000 |       0.0000 |       0.0000 |       0.0000 |       0.0000 |       0.0000 |       0.0000 |       0.0000 |       0.0000 |       0.0000 |       0.0000 |       0.0000 |       0.0000 |       0.0000 |       0.0000 |       0.0000 |       0.0000 |
itlb.accesses                               872042 |       872042 |       872042 |       872042 |      1867637 |      1867637 |      1867637 |      1867637 |      4004612 |      4004612 |      4004612 |      4004612 |      8530205 |      8530205 |      8530205 |      8530205 |     18158905 |     18158905 |     18158905 |     18158905 |     38444920 |     38444920 |     38444920 |     38444920 |     81261848 |     81261848 |     81261848 |     81261848 |    171098554 |    171098554 |    171098554 |    171098554 |    359759194 |    359759194 |    359759194 |    359759194 |    753705935 |    753705935 |    753705935 |    753705935 |   1577789016 |   1577789016 |   1577789016 |   1577789016 |
itlb.hits                                   872033 |       872033 |       872033 |       872033 |      1867628 |      1867628 |      1867628 |      1867628 |      4004603 |      4004603 |      4004603 |      4004603 |      8530196 |      8530196 |      8530196 |      8530196 |     18158896 |     18158896 |     18158896 |     18158896 |     38444911 |     38444911 |     38444911 |     38444911 |     81261839 |     81261839 |     81261839 |     81261839 |    171098545 |    171098545 |    171098545 |    171098545 |    359759185 |    359759185 |    359759185 |    359759185 |    753705926 |    753705926 |    753705926 |    753705926 |   1577789007 |   1577789007 |   1577789007 |   1577789007 |
itlb.misses                                      9 |            9 |            9 |            9 |            9 |            9 |            9 |            9 |            9 |            9 |            9 |            9 |            9 |            9 |            9 |            9 |            9 |            9 |            9 |            9 |            9 |            9 |            9 |            9 |            9 |            9 |            9 |            9 |            9 |            9 |            9 |            9 |            9 |            9 |            9 |            9 |            9 |            9 |            9 |            9 |            9 |            9 |            9 |            9 |
itlb.replacements                                0 |            0 |            0 |            0 |            0 |            0 |            0 |            0 |            0 |            0 |            0 |            0 |            0 |            0 |            0 |            0 |            0 |            0 |            0 |            0 |            0 |            0 |            0 |            0 |            0 |            0 |            0 |            0 |            0 |            0 |            0 |            0 |            0 |            0 |            0 |            0 |            0 |            0 |            0 |            0 |            0 |            0 |            0 |            0 |
itlb.writebacks                                  0 |            0 |            0 |            0 |            0 |            0 |            0 |            0 |            0 |            0 |            0 |            0 |            0 |            0 |            0 |            0 |            0 |            0 |            0 |            0 |            0 |            0 |            0 |            0 |            0 |            0 |            0 |            0 |            0 |            0 |            0 |            0 |            0 |            0 |            0 |            0 |            0 |            0 |            0 |            0 |            0 |            0 |            0 |            0 |
itlb.invalidations                               0 |            0 |            0 |            0 |            0 |            0 |            0 |            0 |            0 |            0 |            0 |            0 |            0 |            0 |            0 |            0 |            0 |            0 |            0 |            0 |            0 |            0 |            0 |            0 |            0 |            0 |            0 |            0 |            0 |            0 |            0 |            0 |            0 |            0 |            0 |            0 |            0 |            0 |            0 |            0 |            0 |            0 |            0 |            0 |
itlb.miss_rate                              0.0000 |       0.0000 |       0.0000 |       0.0000 |       0.0000 |       0.0000 |       0.0000 |       0.0000 |       0.0000 |       0.0000 |       0.0000 |       0.0000 |       0.0000 |       0.0000 |       0.0000 |       0.0000 |       0.0000 |       0.0000 |       0.0000 |       0.0000 |       0.0000 |       0.0000 |       0.0000 |       0.0000 |       0.0000 |       0.0000 |       0.0000 |       0.0000 |       0.0000 |       0.0000 |       0.0000 |       0.0000 |       0.0000 |       0.0000 |       0.0000 |       0.0000 |       0.0000 |       0.0000 |       0.0000 |       0.0000 |       0.0000 |       0.0000 |       0.0000 |       0.0000 |
itlb.repl_rate                              0.0000 |       0.0000 |       0.0000 |       0.0000 |       0.0000 |       0.0000 |       0.0000 |       0.0000 |       0.0000 |       0.0000 |       0.0000 |       0.0000 |       0.0000 |       0.0000 |       0.0000 |       0.0000 |       0.0000 |       0.0000 |       0.0000 |       0.0000 |       0.0000 |       0.0000 |       0.0000 |       0.0000 |       0.0000 |       0.0000 |       0.0000 |       0.0000 |       0.0000 |       0.0000 |       0.0000 |       0.0000 |       0.0000 |       0.0000 |       0.0000 |       0.0000 |       0.0000 |       0.0000 |       0.0000 |       0.0000 |       0.0000 |       0.0000 |       0.0000 |       0.0000 |
itlb.wb_rate                                0.0000 |       0.0000 |       0.0000 |       0.0000 |       0.0000 |       0.0000 |       0.0000 |       0.0000 |       0.0000 |       0.0000 |       0.0000 |       0.0000 |       0.0000 |       0.0000 |       0.0000 |       0.0000 |       0.0000 |       0.0000 |       0.0000 |       0.0000 |       0.0000 |       0.0000 |       0.0000 |       0.0000 |       0.0000 |       0.0000 |       0.0000 |       0.0000 |       0.0000 |       0.0000 |       0.0000 |       0.0000 |       0.0000 |       0.0000 |       0.0000 |       0.0000 |       0.0000 |       0.0000 |       0.0000 |       0.0000 |       0.0000 |       0.0000 |       0.0000 |       0.0000 |
itlb.inv_rate                               0.0000 |       0.0000 |       0.0000 |       0.0000 |       0.0000 |       0.0000 |       0.0000 |       0.0000 |       0.0000 |       0.0000 |       0.0000 |       0.0000 |       0.0000 |       0.0000 |       0.0000 |       0.0000 |       0.0000 |       0.0000 |       0.0000 |       0.0000 |       0.0000 |       0.0000 |       0.0000 |       0.0000 |       0.0000 |       0.0000 |       0.0000 |       0.0000 |       0.0000 |       0.0000 |       0.0000 |       0.0000 |       0.0000 |       0.0000 |       0.0000 |       0.0000 |       0.0000 |       0.0000 |       0.0000 |       0.0000 |       0.0000 |       0.0000 |       0.0000 |       0.0000 |
dtlb.accesses                               234809 |       234809 |       234809 |       234809 |       497350 |       497350 |       497350 |       497350 |      1057335 |      1057335 |      1057335 |      1057335 |      2238755 |      2238755 |      2238755 |      2238755 |      4740216 |      4740216 |      4740216 |      4740216 |      9993650 |      9993650 |      9993650 |      9993650 |     21040123 |     21040123 |     21040123 |     21040123 |     44154665 |     44154665 |     44154665 |     44154665 |     92550580 |     92550580 |     92550580 |     92550580 |    193381402 |    193381402 |    193381402 |    193381402 |    403745034 |    403745034 |    403745034 |    403745034 |
dtlb.hits                                   234793 |       234793 |       234793 |       234793 |       497326 |       497326 |       497326 |       497326 |      1057295 |      1057295 |      1057295 |      1057295 |      2238683 |      2238683 |      2238683 |      2238683 |      4740069 |      4740069 |      4740069 |      4740069 |      9992824 |      9992824 |      9992824 |      9992824 |     20982735 |     20982735 |     20982735 |     20982735 |     43803719 |     43803719 |     43803719 |     43803719 |     91257197 |     91257197 |     91257197 |     91257197 |    189528008 |    189528008 |    189528008 |    189528008 |    393447979 |    393447979 |    393447979 |    393447979 |
dtlb.misses                                     16 |           16 |           16 |           16 |           24 |           24 |           24 |           24 |           40 |           40 |           40 |           40 |           72 |           72 |           72 |           72 |          147 |          147 |          147 |          147 |          826 |          826 |          826 |          826 |        57388 |        57388 |        57388 |        57388 |       350946 |       350946 |       350946 |       350946 |      1293383 |      1293383 |      1293383 |      1293383 |      3853394 |      3853394 |      3853394 |      3853394 |     10297055 |     10297055 |     10297055 |     10297055 |
dtlb.replacements                                0 |            0 |            0 |            0 |            0 |            0 |            0 |            0 |            0 |            0 |            0 |            0 |            0 |            0 |            0 |            0 |           19 |           19 |           19 |           19 |          698 |          698 |          698 |          698 |        57260 |        57260 |        57260 |        57260 |       350818 |       350818 |       350818 |       350818 |      1293255 |      1293255 |      1293255 |      1293255 |      3853266 |      3853266 |      3853266 |      3853266 |     10296927 |     10296927 |     10296927 |     10296927 |
dtlb.writebacks                                  0 |            0 |            0 |            0 |            0 |            0 |            0 |            0 |            0 |            0 |            0 |            0 |            0 |            0 |            0 |            0 |           16 |           16 |           16 |           16 |          571 |          571 |          571 |          571 |        54105 |        54105 |        54105 |        54105 |       332285 |       332285 |       332285 |       332285 |      1234137 |      1234137 |      1234137 |      1234137 |      3704024 |      3704024 |      3704024 |      3704024 |      9960624 |      9960624 |      9960624 |      9960624 |
dtlb.invalidations                               0 |            0 |            0 |            0 |            0 |            0 |            0 |            0 |            0 |            0 |            0 |            0 |            0 |            0 |            0 |            0 |            0 |            0 |            0 |            0 |            0 |            0 |            0 |            0 |            0 |            0 |            0 |            0 |            0 |            0 |            0 |            0 |            0 |            0 |            0 |            0 |            0 |            0 |            0 |            0 |            0 |            0 |            0 |            0 |
dtlb.miss_rate                              0.0001 |       0.0001 |       0.0001 |       0.0001 |       0.0000 |       0.0000 |       0.0000 |       0.0000 |       0.0000 |       0.0000 |       0.0000 |       0.0000 |       0.0000 |       0.0000 |       0.0000 |       0.0000 |       0.0000 |       0.0000 |       0.0000 |       0.0000 |       0.0001 |       0.0001 |       0.0001 |       0.0001 |       0.0027 |       0.0027 |       0.0027 |       0.0027 |       0.0079 |       0.0079 |       0.0079 |       0.0079 |       0.0140 |       0.0140 |       0.0140 |       0.0140 |       0.0199 |       0.0199 |       0.0199 |       0.0199 |       0.0255 |       0.0255 |       0.0255 |       0.0255 |
dtlb.repl_rate                              0.0000 |       0.0000 |       0.0000 |       0.0000 |       0.0000 |       0.0000 |       0.0000 |       0.0000 |       0.0000 |       0.0000 |       0.0000 |       0.0000 |       0.0000 |       0.0000 |       0.0000 |       0.0000 |       0.0000 |       0.0000 |       0.0000 |       0.0000 |       0.0001 |       0.0001 |       0.0001 |       0.0001 |       0.0027 |       0.0027 |       0.0027 |       0.0027 |       0.0079 |       0.0079 |       0.0079 |       0.0079 |       0.0140 |       0.0140 |       0.0140 |       0.0140 |       0.0199 |       0.0199 |       0.0199 |       0.0199 |       0.0255 |       0.0255 |       0.0255 |       0.0255 |
dtlb.wb_rate                                0.0000 |       0.0000 |       0.0000 |       0.0000 |       0.0000 |       0.0000 |       0.0000 |       0.0000 |       0.0000 |       0.0000 |       0.0000 |       0.0000 |       0.0000 |       0.0000 |       0.0000 |       0.0000 |       0.0000 |       0.0000 |       0.0000 |       0.0000 |       0.0001 |       0.0001 |       0.0001 |       0.0001 |       0.0026 |       0.0026 |       0.0026 |       0.0026 |       0.0075 |       0.0075 |       0.0075 |       0.0075 |       0.0133 |       0.0133 |       0.0133 |       0.0133 |       0.0192 |       0.0192 |       0.0192 |       0.0192 |       0.0247 |       0.0247 |       0.0247 |       0.0247 |
dtlb.inv_rate                               0.0000 |       0.0000 |       0.0000 |       0.0000 |       0.0000 |       0.0000 |       0.0000 |       0.0000 |       0.0000 |       0.0000 |       0.0000 |       0.0000 |       0.0000 |       0.0000 |       0.0000 |       0.0000 |       0.0000 |       0.0000 |       0.0000 |       0.0000 |       0.0000 |       0.0000 |       0.0000 |       0.0000 |       0.0000 |       0.0000 |       0.0000 |       0.0000 |       0.0000 |       0.0000 |       0.0000 |       0.0000 |       0.0000 |       0.0000 |       0.0000 |       0.0000 |       0.0000 |       0.0000 |       0.0000 |       0.0000 |       0.0000 |       0.0000 |       0.0000 |       0.0000 |
ld_text_base                            0x00400000 |   0x00400000 |   0x00400000 |   0x00400000 |   0x00400000 |   0x00400000 |   0x00400000 |   0x00400000 |   0x00400000 |   0x00400000 |   0x00400000 |   0x00400000 |   0x00400000 |   0x00400000 |   0x00400000 |   0x00400000 |   0x00400000 |   0x00400000 |   0x00400000 |   0x00400000 |   0x00400000 |   0x00400000 |   0x00400000 |   0x00400000 |   0x00400000 |   0x00400000 |   0x00400000 |   0x00400000 |   0x00400000 |   0x00400000 |   0x00400000 |   0x00400000 |   0x00400000 |   0x00400000 |   0x00400000 |   0x00400000 |   0x00400000 |   0x00400000 |   0x00400000 |   0x00400000 |   0x00400000 |   0x00400000 |   0x00400000 |   0x00400000 |
ld_text_size                                 74304 |        74304 |        74304 |        74304 |        74336 |        74336 |        74336 |        74336 |        74352 |        74352 |        74352 |        74352 |        74368 |        74368 |        74368 |        74368 |        74368 |        74368 |        74368 |        74368 |        74368 |        74368 |        74368 |        74368 |        74368 |        74368 |        74368 |        74368 |        74368 |        74368 |        74368 |        74368 |        74368 |        74368 |        74368 |        74368 |        74368 |        74368 |        74368 |        74368 |        74368 |        74368 |        74368 |        74368 |
ld_data_base                            0x10000000 |   0x10000000 |   0x10000000 |   0x10000000 |   0x10000000 |   0x10000000 |   0x10000000 |   0x10000000 |   0x10000000 |   0x10000000 |   0x10000000 |   0x10000000 |   0x10000000 |   0x10000000 |   0x10000000 |   0x10000000 |   0x10000000 |   0x10000000 |   0x10000000 |   0x10000000 |   0x10000000 |   0x10000000 |   0x10000000 |   0x10000000 |   0x10000000 |   0x10000000 |   0x10000000 |   0x10000000 |   0x10000000 |   0x10000000 |   0x10000000 |   0x10000000 |   0x10000000 |   0x10000000 |   0x10000000 |   0x10000000 |   0x10000000 |   0x10000000 |   0x10000000 |   0x10000000 |   0x10000000 |   0x10000000 |   0x10000000 |   0x10000000 |
ld_data_size                                  8192 |         8192 |         8192 |         8192 |         8192 |         8192 |         8192 |         8192 |         8192 |         8192 |         8192 |         8192 |         8192 |         8192 |         8192 |         8192 |         8192 |         8192 |         8192 |         8192 |         8192 |         8192 |         8192 |         8192 |         8192 |         8192 |         8192 |         8192 |         8192 |         8192 |         8192 |         8192 |         8192 |         8192 |         8192 |         8192 |         8192 |         8192 |         8192 |         8192 |         8192 |         8192 |         8192 |         8192 |
ld_stack_base                           0x7fffc000 |   0x7fffc000 |   0x7fffc000 |   0x7fffc000 |   0x7fffc000 |   0x7fffc000 |   0x7fffc000 |   0x7fffc000 |   0x7fffc000 |   0x7fffc000 |   0x7fffc000 |   0x7fffc000 |   0x7fffc000 |   0x7fffc000 |   0x7fffc000 |   0x7fffc000 |   0x7fffc000 |   0x7fffc000 |   0x7fffc000 |   0x7fffc000 |   0x7fffc000 |   0x7fffc000 |   0x7fffc000 |   0x7fffc000 |   0x7fffc000 |   0x7fffc000 |   0x7fffc000 |   0x7fffc000 |   0x7fffc000 |   0x7fffc000 |   0x7fffc000 |   0x7fffc000 |   0x7fffc000 |   0x7fffc000 |   0x7fffc000 |   0x7fffc000 |   0x7fffc000 |   0x7fffc000 |   0x7fffc000 |   0x7fffc000 |   0x7fffc000 |   0x7fffc000 |   0x7fffc000 |   0x7fffc000 |
ld_stack_size                                16384 |        16384 |        16384 |        16384 |        16384 |        16384 |        16384 |        16384 |        16384 |        16384 |        16384 |        16384 |        16384 |        16384 |        16384 |        16384 |        16384 |        16384 |        16384 |        16384 |        16384 |        16384 |        16384 |        16384 |        16384 |        16384 |        16384 |        16384 |        16384 |        16384 |        16384 |        16384 |        16384 |        16384 |        16384 |        16384 |        16384 |        16384 |        16384 |        16384 |        16384 |        16384 |        16384 |        16384 |
ld_prog_entry                           0x00400140 |   0x00400140 |   0x00400140 |   0x00400140 |   0x00400140 |   0x00400140 |   0x00400140 |   0x00400140 |   0x00400140 |   0x00400140 |   0x00400140 |   0x00400140 |   0x00400140 |   0x00400140 |   0x00400140 |   0x00400140 |   0x00400140 |   0x00400140 |   0x00400140 |   0x00400140 |   0x00400140 |   0x00400140 |   0x00400140 |   0x00400140 |   0x00400140 |   0x00400140 |   0x00400140 |   0x00400140 |   0x00400140 |   0x00400140 |   0x00400140 |   0x00400140 |   0x00400140 |   0x00400140 |   0x00400140 |   0x00400140 |   0x00400140 |   0x00400140 |   0x00400140 |   0x00400140 |   0x00400140 |   0x00400140 |   0x00400140 |   0x00400140 |
ld_environ_base                         0x7fff8000 |   0x7fff8000 |   0x7fff8000 |   0x7fff8000 |   0x7fff8000 |   0x7fff8000 |   0x7fff8000 |   0x7fff8000 |   0x7fff8000 |   0x7fff8000 |   0x7fff8000 |   0x7fff8000 |   0x7fff8000 |   0x7fff8000 |   0x7fff8000 |   0x7fff8000 |   0x7fff8000 |   0x7fff8000 |   0x7fff8000 |   0x7fff8000 |   0x7fff8000 |   0x7fff8000 |   0x7fff8000 |   0x7fff8000 |   0x7fff8000 |   0x7fff8000 |   0x7fff8000 |   0x7fff8000 |   0x7fff8000 |   0x7fff8000 |   0x7fff8000 |   0x7fff8000 |   0x7fff8000 |   0x7fff8000 |   0x7fff8000 |   0x7fff8000 |   0x7fff8000 |   0x7fff8000 |   0x7fff8000 |   0x7fff8000 |   0x7fff8000 |   0x7fff8000 |   0x7fff8000 |   0x7fff8000 |
ld_target_big_endian                             0 |            0 |            0 |            0 |            0 |            0 |            0 |            0 |            0 |            0 |            0 |            0 |            0 |            0 |            0 |            0 |            0 |            0 |            0 |            0 |            0 |            0 |            0 |            0 |            0 |            0 |            0 |            0 |            0 |            0 |            0 |            0 |            0 |            0 |            0 |            0 |            0 |            0 |            0 |            0 |            0 |            0 |            0 |            0 |
mem.page_count                                  35 |           35 |           35 |           35 |           43 |           43 |           43 |           43 |           59 |           59 |           59 |           59 |           91 |           91 |           91 |           91 |          155 |          155 |          155 |          155 |          283 |          283 |          283 |          283 |          539 |          539 |          539 |          539 |         1051 |         1051 |         1051 |         1051 |         2081 |         2081 |         2081 |         2081 |         4135 |         4135 |         4135 |         4135 |         8243 |         8243 |         8243 |         8243 |
mem.page_mem                                  140k |         140k |         140k |         140k |         172k |         172k |         172k |         172k |         236k |         236k |         236k |         236k |         364k |         364k |         364k |         364k |         620k |         620k |         620k |         620k |        1132k |        1132k |        1132k |        1132k |        2156k |        2156k |        2156k |        2156k |        4204k |        4204k |        4204k |        4204k |        8324k |        8324k |        8324k |        8324k |       16540k |       16540k |       16540k |       16540k |       32972k |       32972k |       32972k |       32972k |
mem.ptab_misses                                 35 |           35 |           35 |           35 |           43 |           43 |           43 |           43 |           59 |           59 |           59 |           59 |           91 |           91 |           91 |           91 |          155 |          155 |          155 |          155 |          283 |          283 |          283 |          283 |          539 |          539 |          539 |          539 |         1051 |         1051 |         1051 |         1051 |         9112 |         9112 |         9112 |         9112 |        24110 |        24110 |        24110 |        24110 |        64488 |        64488 |        64488 |        64488 |
mem.ptab_accesses                          4418202 |      4418202 |      4418202 |      4418202 |      8925856 |      8925856 |      8925856 |      8925856 |     18593822 |     18593822 |     18593822 |     18593822 |     39059130 |     39059130 |     39059130 |     39059130 |     82576852 |     82576852 |     82576852 |     82576852 |    174227780 |    174227780 |    174227780 |    174227780 |    367588438 |    367588438 |    367588438 |    367588438 |    773164346 |    773164346 |    773164346 |    773164346 |   1624598736 |   1624598736 |   1624598736 |   1624598736 |   3402047344 |   3402047344 |   3402047344 |   3402047344 |   7119106932 |   7119106932 |   7119106932 |   7119106932 |
mem.ptab_miss_rate                          0.0000 |       0.0000 |       0.0000 |       0.0000 |       0.0000 |       0.0000 |       0.0000 |       0.0000 |       0.0000 |       0.0000 |       0.0000 |       0.0000 |       0.0000 |       0.0000 |       0.0000 |       0.0000 |       0.0000 |       0.0000 |       0.0000 |       0.0000 |       0.0000 |       0.0000 |       0.0000 |       0.0000 |       0.0000 |       0.0000 |       0.0000 |       0.0000 |       0.0000 |       0.0000 |       0.0000 |       0.0000 |       0.0000 |       0.0000 |       0.0000 |       0.0000 |       0.0000 |       0.0000 |       0.0000 |       0.0000 |       0.0000 |       0.0000 |       0.0000 |       0.0000 |
-------------------------------------------------------------------------------------------------
sim-bpred                                     4096 |         4096 |         4096 |         4096 |         4096 |         4096 |         4096 |         8192 |         8192 |         8192 |         8192 |         8192 |         8192 |         8192 |        16384 |        16384 |        16384 |        16384 |        16384 |        16384 |        16384 |        32768 |        32768 |        32768 |        32768 |        32768 |        32768 |        32768 |        65536 |        65536 |        65536 |        65536 |        65536 |        65536 |        65536 |       131072 |       131072 |       131072 |       131072 |       131072 |       131072 |       131072 |       262144 |       262144 |       262144 |       262144 |       262144 |       262144 |       262144 |       524288 |       524288 |       524288 |       524288 |       524288 |       524288 |       524288 |      1048576 |      1048576 |      1048576 |      1048576 |      1048576 |      1048576 |      1048576 |      2097152 |      2097152 |      2097152 |      2097152 |      2097152 |      2097152 |      2097152 |      4194304 |      4194304 |      4194304 |      4194304 |      4194304 |      4194304 |      4194304 |
-bpred bimod -bpred:bimod 512
-bpred bimod -bpred:bimod 1024
-bpred bimod -bpred:bimod 2048
-bpred 2lev -bpred:2lev 1 512 10 1
-bpred 2lev -bpred:2lev 1 1024 10 1
-bpred 2lev -bpred:2lev 1 2048 10 1
-bpred 2lev -bpred:2lev 1 4096 10 1
-------------------------------------------------------------------------------------------------
sim_num_insn                                872042 |       872042 |       872042 |       872042 |       872042 |       872042 |       872042 |      1867637 |      1867637 |      1867637 |      1867637 |      1867637 |      1867637 |      1867637 |      4004612 |      4004612 |      4004612 |      4004612 |      4004612 |      4004612 |      4004612 |      8530205 |      8530205 |      8530205 |      8530205 |      8530205 |      8530205 |      8530205 |     18158905 |     18158905 |     18158905 |     18158905 |     18158905 |     18158905 |     18158905 |     38444920 |     38444920 |     38444920 |     38444920 |     38444920 |     38444920 |     38444920 |     81261848 |     81261848 |     81261848 |     81261848 |     81261848 |     81261848 |     81261848 |    171098554 |    171098554 |    171098554 |    171098554 |    171098554 |    171098554 |    171098554 |    359759194 |    359759194 |    359759194 |    359759194 |    359759194 |    359759194 |    359759194 |    753705935 |    753705935 |    753705935 |    753705935 |    753705935 |    753705935 |    753705935 |   1577789016 |   1577789016 |   1577789016 |   1577789016 |   1577789016 |   1577789016 |   1577789016 |
sim_num_refs                                218343 |       218343 |       218343 |       218343 |       218343 |       218343 |       218343 |       464500 |       464500 |       464500 |       464500 |       464500 |       464500 |       464500 |       991717 |       991717 |       991717 |       991717 |       991717 |       991717 |       991717 |      2107601 |      2107601 |      2107601 |      2107601 |      2107601 |      2107601 |      2107601 |      4477990 |      4477990 |      4477990 |      4477990 |      4477990 |      4477990 |      4477990 |      9469280 |      9469280 |      9469280 |      9469280 |      9469280 |      9469280 |      9469280 |     19991465 |     19991465 |     19991465 |     19991465 |     19991465 |     19991465 |     19991465 |     42057431 |     42057431 |     42057431 |     42057431 |     42057431 |     42057431 |     42057431 |     88356194 |     88356194 |     88356194 |     88356194 |     88356194 |     88356194 |     88356194 |    184992712 |    184992712 |    184992712 |    184992712 |    184992712 |    184992712 |    184992712 |    386967736 |    386967736 |    386967736 |    386967736 |    386967736 |    386967736 |    386967736 |
sim_elapsed_time                                 1 |            1 |            1 |            1 |            1 |            1 |            1 |            1 |            1 |            1 |            1 |            1 |            1 |            1 |            1 |            1 |            1 |            1 |            1 |            1 |            1 |            1 |            1 |            1 |            1 |            1 |            1 |            2 |            2 |            3 |            2 |            2 |            3 |            2 |            3 |            5 |            5 |            5 |            5 |            5 |            5 |            5 |           11 |           11 |           10 |           11 |           11 |           10 |           11 |           22 |           22 |           22 |           22 |           23 |           23 |           22 |           47 |           47 |           47 |           48 |           47 |           48 |           47 |           99 |           98 |           98 |          100 |          100 |           99 |          100 |          204 |          205 |          205 |          206 |          207 |          207 |          206 |
sim_inst_rate                          872042.0000 |  872042.0000 |  872042.0000 |  872042.0000 |  872042.0000 |  872042.0000 |  872042.0000 | 1867637.0000 | 1867637.0000 | 1867637.0000 | 1867637.0000 | 1867637.0000 | 1867637.0000 | 1867637.0000 | 4004612.0000 | 4004612.0000 | 4004612.0000 | 4004612.0000 | 4004612.0000 | 4004612.0000 | 4004612.0000 | 8530205.0000 | 8530205.0000 | 8530205.0000 | 8530205.0000 | 8530205.0000 | 8530205.0000 | 4265102.5000 | 9079452.5000 | 6052968.3333 | 9079452.5000 | 9079452.5000 | 6052968.3333 | 9079452.5000 | 6052968.3333 | 7688984.0000 | 7688984.0000 | 7688984.0000 | 7688984.0000 | 7688984.0000 | 7688984.0000 | 7688984.0000 | 7387440.7273 | 7387440.7273 | 8126184.8000 | 7387440.7273 | 7387440.7273 | 8126184.8000 | 7387440.7273 | 7777207.0000 | 7777207.0000 | 7777207.0000 | 7777207.0000 | 7439067.5652 | 7439067.5652 | 7777207.0000 | 7654450.9362 | 7654450.9362 | 7654450.9362 | 7494983.2083 | 7654450.9362 | 7494983.2083 | 7654450.9362 | 7613191.2626 | 7690876.8878 | 7690876.8878 | 7537059.3500 | 7537059.3500 | 7613191.2626 | 7537059.3500 | 7734259.8824 | 7696531.7854 | 7696531.7854 | 7659169.9806 | 7622169.1594 | 7622169.1594 | 7659169.9806 |
sim_num_branches                            155248 |       155248 |       155248 |       155248 |       155248 |       155248 |       155248 |       333340 |       333340 |       333340 |       333340 |       333340 |       333340 |       333340 |       715916 |       715916 |       715916 |       715916 |       715916 |       715916 |       715916 |      1526813 |      1526813 |      1526813 |      1526813 |      1526813 |      1526813 |      1526813 |      3253033 |      3253033 |      3253033 |      3253033 |      3253033 |      3253033 |      3253033 |      6893130 |      6893130 |      6893130 |      6893130 |      6893130 |      6893130 |      6893130 |     14577181 |     14577181 |     14577181 |     14577181 |     14577181 |     14577181 |     14577181 |     30713255 |     30713255 |     30713255 |     30713255 |     30713255 |     30713255 |     30713255 |     64602799 |     64602799 |     64602799 |     64602799 |     64602799 |     64602799 |     64602799 |    135419945 |    135419945 |    135419945 |    135419945 |    135419945 |    135419945 |    135419945 |    283580927 |    283580927 |    283580927 |    283580927 |    283580927 |    283580927 |    283580927 |
sim_IPB                                     5.6171 |       5.6171 |       5.6171 |       5.6171 |       5.6171 |       5.6171 |       5.6171 |       5.6028 |       5.6028 |       5.6028 |       5.6028 |       5.6028 |       5.6028 |       5.6028 |       5.5937 |       5.5937 |       5.5937 |       5.5937 |       5.5937 |       5.5937 |       5.5937 |       5.5869 |       5.5869 |       5.5869 |       5.5869 |       5.5869 |       5.5869 |       5.5869 |       5.5821 |       5.5821 |       5.5821 |       5.5821 |       5.5821 |       5.5821 |       5.5821 |       5.5773 |       5.5773 |       5.5773 |       5.5773 |       5.5773 |       5.5773 |       5.5773 |       5.5746 |       5.5746 |       5.5746 |       5.5746 |       5.5746 |       5.5746 |       5.5746 |       5.5708 |       5.5708 |       5.5708 |       5.5708 |       5.5708 |       5.5708 |       5.5708 |       5.5688 |       5.5688 |       5.5688 |       5.5688 |       5.5688 |       5.5688 |       5.5688 |       5.5657 |       5.5657 |       5.5657 |       5.5657 |       5.5657 |       5.5657 |       5.5657 |       5.5638 |       5.5638 |       5.5638 |       5.5638 |       5.5638 |       5.5638 |       5.5638 |
bpred_bimod.lookups                         155248 |       155248 |       155248 |xxxxxxxxxxxxx |xxxxxxxxxxxxx |xxxxxxxxxxxxx |xxxxxxxxxxxxx |       333340 |       333340 |       333340 |xxxxxxxxxxxxx |xxxxxxxxxxxxx |xxxxxxxxxxxxx |xxxxxxxxxxxxx |       715916 |       715916 |       715916 |xxxxxxxxxxxxx |xxxxxxxxxxxxx |xxxxxxxxxxxxx |xxxxxxxxxxxxx |      1526813 |      1526813 |      1526813 |xxxxxxxxxxxxx |xxxxxxxxxxxxx |xxxxxxxxxxxxx |xxxxxxxxxxxxx |      3253033 |      3253033 |      3253033 |xxxxxxxxxxxxx |xxxxxxxxxxxxx |xxxxxxxxxxxxx |xxxxxxxxxxxxx |      6893130 |      6893130 |      6893130 |xxxxxxxxxxxxx |xxxxxxxxxxxxx |xxxxxxxxxxxxx |xxxxxxxxxxxxx |     14577181 |     14577181 |     14577181 |xxxxxxxxxxxxx |xxxxxxxxxxxxx |xxxxxxxxxxxxx |xxxxxxxxxxxxx |     30713255 |     30713255 |     30713255 |xxxxxxxxxxxxx |xxxxxxxxxxxxx |xxxxxxxxxxxxx |xxxxxxxxxxxxx |     64602799 |     64602799 |     64602799 |xxxxxxxxxxxxx |xxxxxxxxxxxxx |xxxxxxxxxxxxx |xxxxxxxxxxxxx |    135419945 |    135419945 |    135419945 |xxxxxxxxxxxxx |xxxxxxxxxxxxx |xxxxxxxxxxxxx |xxxxxxxxxxxxx |    283580927 |    283580927 |    283580927 |
bpred_bimod.updates                         155248 |       155248 |       155248 |xxxxxxxxxxxxx |xxxxxxxxxxxxx |xxxxxxxxxxxxx |xxxxxxxxxxxxx |       333340 |       333340 |       333340 |xxxxxxxxxxxxx |xxxxxxxxxxxxx |xxxxxxxxxxxxx |xxxxxxxxxxxxx |       715916 |       715916 |       715916 |xxxxxxxxxxxxx |xxxxxxxxxxxxx |xxxxxxxxxxxxx |xxxxxxxxxxxxx |      1526813 |      1526813 |      1526813 |xxxxxxxxxxxxx |xxxxxxxxxxxxx |xxxxxxxxxxxxx |xxxxxxxxxxxxx |      3253033 |      3253033 |      3253033 |xxxxxxxxxxxxx |xxxxxxxxxxxxx |xxxxxxxxxxxxx |xxxxxxxxxxxxx |      6893130 |      6893130 |      6893130 |xxxxxxxxxxxxx |xxxxxxxxxxxxx |xxxxxxxxxxxxx |xxxxxxxxxxxxx |     14577181 |     14577181 |     14577181 |xxxxxxxxxxxxx |xxxxxxxxxxxxx |xxxxxxxxxxxxx |xxxxxxxxxxxxx |     30713255 |     30713255 |     30713255 |xxxxxxxxxxxxx |xxxxxxxxxxxxx |xxxxxxxxxxxxx |xxxxxxxxxxxxx |     64602799 |     64602799 |     64602799 |xxxxxxxxxxxxx |xxxxxxxxxxxxx |xxxxxxxxxxxxx |xxxxxxxxxxxxx |    135419945 |    135419945 |    135419945 |xxxxxxxxxxxxx |xxxxxxxxxxxxx |xxxxxxxxxxxxx |xxxxxxxxxxxxx |    283580927 |    283580927 |    283580927 |
bpred_bimod.addr_hits                       124581 |       124589 |       124589 |xxxxxxxxxxxxx |xxxxxxxxxxxxx |xxxxxxxxxxxxx |xxxxxxxxxxxxx |       266792 |       266798 |       266798 |xxxxxxxxxxxxx |xxxxxxxxxxxxx |xxxxxxxxxxxxx |xxxxxxxxxxxxx |       573882 |       573888 |       573889 |xxxxxxxxxxxxx |xxxxxxxxxxxxx |xxxxxxxxxxxxx |xxxxxxxxxxxxx |      1221610 |      1221616 |      1221619 |xxxxxxxxxxxxx |xxxxxxxxxxxxx |xxxxxxxxxxxxx |xxxxxxxxxxxxx |      2605847 |      2605853 |      2605856 |xxxxxxxxxxxxx |xxxxxxxxxxxxx |xxxxxxxxxxxxx |xxxxxxxxxxxxx |      5516368 |      5516375 |      5516377 |xxxxxxxxxxxxx |xxxxxxxxxxxxx |xxxxxxxxxxxxx |xxxxxxxxxxxxx |     11672077 |     11672084 |     11672086 |xxxxxxxxxxxxx |xxxxxxxxxxxxx |xxxxxxxxxxxxx |xxxxxxxxxxxxx |     24567791 |     24567798 |     24567800 |xxxxxxxxxxxxx |xxxxxxxxxxxxx |xxxxxxxxxxxxx |xxxxxxxxxxxxx |     51709284 |     51709290 |     51709291 |xxxxxxxxxxxxx |xxxxxxxxxxxxx |xxxxxxxxxxxxx |xxxxxxxxxxxxx |    108310738 |    108310744 |    108310745 |xxxxxxxxxxxxx |xxxxxxxxxxxxx |xxxxxxxxxxxxx |xxxxxxxxxxxxx |    226972782 |    226972788 |    226972789 |
bpred_bimod.dir_hits                        124703 |       124711 |       124712 |xxxxxxxxxxxxx |xxxxxxxxxxxxx |xxxxxxxxxxxxx |xxxxxxxxxxxxx |       266919 |       266925 |       266925 |xxxxxxxxxxxxx |xxxxxxxxxxxxx |xxxxxxxxxxxxx |xxxxxxxxxxxxx |       574009 |       574015 |       574016 |xxxxxxxxxxxxx |xxxxxxxxxxxxx |xxxxxxxxxxxxx |xxxxxxxxxxxxx |      1221735 |      1221741 |      1221744 |xxxxxxxxxxxxx |xxxxxxxxxxxxx |xxxxxxxxxxxxx |xxxxxxxxxxxxx |      2605971 |      2605977 |      2605980 |xxxxxxxxxxxxx |xxxxxxxxxxxxx |xxxxxxxxxxxxx |xxxxxxxxxxxxx |      5516494 |      5516501 |      5516503 |xxxxxxxxxxxxx |xxxxxxxxxxxxx |xxxxxxxxxxxxx |xxxxxxxxxxxxx |     11672203 |     11672210 |     11672212 |xxxxxxxxxxxxx |xxxxxxxxxxxxx |xxxxxxxxxxxxx |xxxxxxxxxxxxx |     24567918 |     24567925 |     24567927 |xxxxxxxxxxxxx |xxxxxxxxxxxxx |xxxxxxxxxxxxx |xxxxxxxxxxxxx |     51709422 |     51709428 |     51709429 |xxxxxxxxxxxxx |xxxxxxxxxxxxx |xxxxxxxxxxxxx |xxxxxxxxxxxxx |    108310877 |    108310883 |    108310884 |xxxxxxxxxxxxx |xxxxxxxxxxxxx |xxxxxxxxxxxxx |xxxxxxxxxxxxx |    226972921 |    226972927 |    226972928 |
bpred_bimod.misses                           30545 |        30537 |        30536 |xxxxxxxxxxxxx |xxxxxxxxxxxxx |xxxxxxxxxxxxx |xxxxxxxxxxxxx |        66421 |        66415 |        66415 |xxxxxxxxxxxxx |xxxxxxxxxxxxx |xxxxxxxxxxxxx |xxxxxxxxxxxxx |       141907 |       141901 |       141900 |xxxxxxxxxxxxx |xxxxxxxxxxxxx |xxxxxxxxxxxxx |xxxxxxxxxxxxx |       305078 |       305072 |       305069 |xxxxxxxxxxxxx |xxxxxxxxxxxxx |xxxxxxxxxxxxx |xxxxxxxxxxxxx |       647062 |       647056 |       647053 |xxxxxxxxxxxxx |xxxxxxxxxxxxx |xxxxxxxxxxxxx |xxxxxxxxxxxxx |      1376636 |      1376629 |      1376627 |xxxxxxxxxxxxx |xxxxxxxxxxxxx |xxxxxxxxxxxxx |xxxxxxxxxxxxx |      2904978 |      2904971 |      2904969 |xxxxxxxxxxxxx |xxxxxxxxxxxxx |xxxxxxxxxxxxx |xxxxxxxxxxxxx |      6145337 |      6145330 |      6145328 |xxxxxxxxxxxxx |xxxxxxxxxxxxx |xxxxxxxxxxxxx |xxxxxxxxxxxxx |     12893377 |     12893371 |     12893370 |xxxxxxxxxxxxx |xxxxxxxxxxxxx |xxxxxxxxxxxxx |xxxxxxxxxxxxx |     27109068 |     27109062 |     27109061 |xxxxxxxxxxxxx |xxxxxxxxxxxxx |xxxxxxxxxxxxx |xxxxxxxxxxxxx |     56608006 |     56608000 |     56607999 |
bpred_bimod.jr_hits                           4157 |         4157 |         4157 |xxxxxxxxxxxxx |xxxxxxxxxxxxx |xxxxxxxxxxxxx |xxxxxxxxxxxxx |         8261 |         8261 |         8261 |xxxxxxxxxxxxx |xxxxxxxxxxxxx |xxxxxxxxxxxxx |xxxxxxxxxxxxx |        16453 |        16453 |        16453 |xxxxxxxxxxxxx |xxxxxxxxxxxxx |xxxxxxxxxxxxx |xxxxxxxxxxxxx |        32837 |        32837 |        32837 |xxxxxxxxxxxxx |xxxxxxxxxxxxx |xxxxxxxxxxxxx |xxxxxxxxxxxxx |        65605 |        65605 |        65605 |xxxxxxxxxxxxx |xxxxxxxxxxxxx |xxxxxxxxxxxxx |xxxxxxxxxxxxx |       131141 |       131141 |       131141 |xxxxxxxxxxxxx |xxxxxxxxxxxxx |xxxxxxxxxxxxx |xxxxxxxxxxxxx |       262213 |       262213 |       262213 |xxxxxxxxxxxxx |xxxxxxxxxxxxx |xxxxxxxxxxxxx |xxxxxxxxxxxxx |       524357 |       524357 |       524357 |xxxxxxxxxxxxx |xxxxxxxxxxxxx |xxxxxxxxxxxxx |xxxxxxxxxxxxx |      1048648 |      1048648 |      1048648 |xxxxxxxxxxxxx |xxxxxxxxxxxxx |xxxxxxxxxxxxx |xxxxxxxxxxxxx |      2097224 |      2097224 |      2097224 |xxxxxxxxxxxxx |xxxxxxxxxxxxx |xxxxxxxxxxxxx |xxxxxxxxxxxxx |      4194376 |      4194376 |      4194376 |
bpred_bimod.jr_seen                           4157 |         4157 |         4157 |xxxxxxxxxxxxx |xxxxxxxxxxxxx |xxxxxxxxxxxxx |xxxxxxxxxxxxx |         8262 |         8262 |         8262 |xxxxxxxxxxxxx |xxxxxxxxxxxxx |xxxxxxxxxxxxx |xxxxxxxxxxxxx |        16454 |        16454 |        16454 |xxxxxxxxxxxxx |xxxxxxxxxxxxx |xxxxxxxxxxxxx |xxxxxxxxxxxxx |        32838 |        32838 |        32838 |xxxxxxxxxxxxx |xxxxxxxxxxxxx |xxxxxxxxxxxxx |xxxxxxxxxxxxx |        65606 |        65606 |        65606 |xxxxxxxxxxxxx |xxxxxxxxxxxxx |xxxxxxxxxxxxx |xxxxxxxxxxxxx |       131142 |       131142 |       131142 |xxxxxxxxxxxxx |xxxxxxxxxxxxx |xxxxxxxxxxxxx |xxxxxxxxxxxxx |       262214 |       262214 |       262214 |xxxxxxxxxxxxx |xxxxxxxxxxxxx |xxxxxxxxxxxxx |xxxxxxxxxxxxx |       524358 |       524358 |       524358 |xxxxxxxxxxxxx |xxxxxxxxxxxxx |xxxxxxxxxxxxx |xxxxxxxxxxxxx |      1048649 |      1048649 |      1048649 |xxxxxxxxxxxxx |xxxxxxxxxxxxx |xxxxxxxxxxxxx |xxxxxxxxxxxxx |      2097225 |      2097225 |      2097225 |xxxxxxxxxxxxx |xxxxxxxxxxxxx |xxxxxxxxxxxxx |xxxxxxxxxxxxx |      4194377 |      4194377 |      4194377 |
bpred_bimod.jr_non_ras_hits.PP                   0 |            0 |            0 |xxxxxxxxxxxxx |xxxxxxxxxxxxx |xxxxxxxxxxxxx |xxxxxxxxxxxxx |            0 |            0 |            0 |xxxxxxxxxxxxx |xxxxxxxxxxxxx |xxxxxxxxxxxxx |xxxxxxxxxxxxx |            0 |            0 |            0 |xxxxxxxxxxxxx |xxxxxxxxxxxxx |xxxxxxxxxxxxx |xxxxxxxxxxxxx |            0 |            0 |            0 |xxxxxxxxxxxxx |xxxxxxxxxxxxx |xxxxxxxxxxxxx |xxxxxxxxxxxxx |            0 |            0 |            0 |xxxxxxxxxxxxx |xxxxxxxxxxxxx |xxxxxxxxxxxxx |xxxxxxxxxxxxx |            0 |            0 |            0 |xxxxxxxxxxxxx |xxxxxxxxxxxxx |xxxxxxxxxxxxx |xxxxxxxxxxxxx |            0 |            0 |            0 |xxxxxxxxxxxxx |xxxxxxxxxxxxx |xxxxxxxxxxxxx |xxxxxxxxxxxxx |            0 |            0 |            0 |xxxxxxxxxxxxx |xxxxxxxxxxxxx |xxxxxxxxxxxxx |xxxxxxxxxxxxx |            0 |            0 |            0 |xxxxxxxxxxxxx |xxxxxxxxxxxxx |xxxxxxxxxxxxx |xxxxxxxxxxxxx |            0 |            0 |            0 |xxxxxxxxxxxxx |xxxxxxxxxxxxx |xxxxxxxxxxxxx |xxxxxxxxxxxxx |            0 |            0 |            0 |
bpred_bimod.jr_non_ras_seen.PP                   0 |            0 |            0 |xxxxxxxxxxxxx |xxxxxxxxxxxxx |xxxxxxxxxxxxx |xxxxxxxxxxxxx |            0 |            0 |            0 |xxxxxxxxxxxxx |xxxxxxxxxxxxx |xxxxxxxxxxxxx |xxxxxxxxxxxxx |            0 |            0 |            0 |xxxxxxxxxxxxx |xxxxxxxxxxxxx |xxxxxxxxxxxxx |xxxxxxxxxxxxx |            0 |            0 |            0 |xxxxxxxxxxxxx |xxxxxxxxxxxxx |xxxxxxxxxxxxx |xxxxxxxxxxxxx |            0 |            0 |            0 |xxxxxxxxxxxxx |xxxxxxxxxxxxx |xxxxxxxxxxxxx |xxxxxxxxxxxxx |            0 |            0 |            0 |xxxxxxxxxxxxx |xxxxxxxxxxxxx |xxxxxxxxxxxxx |xxxxxxxxxxxxx |            0 |            0 |            0 |xxxxxxxxxxxxx |xxxxxxxxxxxxx |xxxxxxxxxxxxx |xxxxxxxxxxxxx |            0 |            0 |            0 |xxxxxxxxxxxxx |xxxxxxxxxxxxx |xxxxxxxxxxxxx |xxxxxxxxxxxxx |            1 |            1 |            1 |xxxxxxxxxxxxx |xxxxxxxxxxxxx |xxxxxxxxxxxxx |xxxxxxxxxxxxx |            1 |            1 |            1 |xxxxxxxxxxxxx |xxxxxxxxxxxxx |xxxxxxxxxxxxx |xxxxxxxxxxxxx |            1 |            1 |            1 |
bpred_bimod.bpred_addr_rate                 0.8025 |       0.8025 |       0.8025 |xxxxxxxxxxxxx |xxxxxxxxxxxxx |xxxxxxxxxxxxx |xxxxxxxxxxxxx |       0.8004 |       0.8004 |       0.8004 |xxxxxxxxxxxxx |xxxxxxxxxxxxx |xxxxxxxxxxxxx |xxxxxxxxxxxxx |       0.8016 |       0.8016 |       0.8016 |xxxxxxxxxxxxx |xxxxxxxxxxxxx |xxxxxxxxxxxxx |xxxxxxxxxxxxx |       0.8001 |       0.8001 |       0.8001 |xxxxxxxxxxxxx |xxxxxxxxxxxxx |xxxxxxxxxxxxx |xxxxxxxxxxxxx |       0.8011 |       0.8011 |       0.8011 |xxxxxxxxxxxxx |xxxxxxxxxxxxx |xxxxxxxxxxxxx |xxxxxxxxxxxxx |       0.8003 |       0.8003 |       0.8003 |xxxxxxxxxxxxx |xxxxxxxxxxxxx |xxxxxxxxxxxxx |xxxxxxxxxxxxx |       0.8007 |       0.8007 |       0.8007 |xxxxxxxxxxxxx |xxxxxxxxxxxxx |xxxxxxxxxxxxx |xxxxxxxxxxxxx |       0.7999 |       0.7999 |       0.7999 |xxxxxxxxxxxxx |xxxxxxxxxxxxx |xxxxxxxxxxxxx |xxxxxxxxxxxxx |       0.8004 |       0.8004 |       0.8004 |xxxxxxxxxxxxx |xxxxxxxxxxxxx |xxxxxxxxxxxxx |xxxxxxxxxxxxx |       0.7998 |       0.7998 |       0.7998 |xxxxxxxxxxxxx |xxxxxxxxxxxxx |xxxxxxxxxxxxx |xxxxxxxxxxxxx |       0.8004 |       0.8004 |       0.8004 |
bpred_bimod.bpred_dir_rate                  0.8033 |       0.8033 |       0.8033 |xxxxxxxxxxxxx |xxxxxxxxxxxxx |xxxxxxxxxxxxx |xxxxxxxxxxxxx |       0.8007 |       0.8008 |       0.8008 |xxxxxxxxxxxxx |xxxxxxxxxxxxx |xxxxxxxxxxxxx |xxxxxxxxxxxxx |       0.8018 |       0.8018 |       0.8018 |xxxxxxxxxxxxx |xxxxxxxxxxxxx |xxxxxxxxxxxxx |xxxxxxxxxxxxx |       0.8002 |       0.8002 |       0.8002 |xxxxxxxxxxxxx |xxxxxxxxxxxxx |xxxxxxxxxxxxx |xxxxxxxxxxxxx |       0.8011 |       0.8011 |       0.8011 |xxxxxxxxxxxxx |xxxxxxxxxxxxx |xxxxxxxxxxxxx |xxxxxxxxxxxxx |       0.8003 |       0.8003 |       0.8003 |xxxxxxxxxxxxx |xxxxxxxxxxxxx |xxxxxxxxxxxxx |xxxxxxxxxxxxx |       0.8007 |       0.8007 |       0.8007 |xxxxxxxxxxxxx |xxxxxxxxxxxxx |xxxxxxxxxxxxx |xxxxxxxxxxxxx |       0.7999 |       0.7999 |       0.7999 |xxxxxxxxxxxxx |xxxxxxxxxxxxx |xxxxxxxxxxxxx |xxxxxxxxxxxxx |       0.8004 |       0.8004 |       0.8004 |xxxxxxxxxxxxx |xxxxxxxxxxxxx |xxxxxxxxxxxxx |xxxxxxxxxxxxx |       0.7998 |       0.7998 |       0.7998 |xxxxxxxxxxxxx |xxxxxxxxxxxxx |xxxxxxxxxxxxx |xxxxxxxxxxxxx |       0.8004 |       0.8004 |       0.8004 |
bpred_bimod.bpred_jr_rate                   1.0000 |       1.0000 |       1.0000 |xxxxxxxxxxxxx |xxxxxxxxxxxxx |xxxxxxxxxxxxx |xxxxxxxxxxxxx |       0.9999 |       0.9999 |       0.9999 |xxxxxxxxxxxxx |xxxxxxxxxxxxx |xxxxxxxxxxxxx |xxxxxxxxxxxxx |       0.9999 |       0.9999 |       0.9999 |xxxxxxxxxxxxx |xxxxxxxxxxxxx |xxxxxxxxxxxxx |xxxxxxxxxxxxx |       1.0000 |       1.0000 |       1.0000 |xxxxxxxxxxxxx |xxxxxxxxxxxxx |xxxxxxxxxxxxx |xxxxxxxxxxxxx |       1.0000 |       1.0000 |       1.0000 |xxxxxxxxxxxxx |xxxxxxxxxxxxx |xxxxxxxxxxxxx |xxxxxxxxxxxxx |       1.0000 |       1.0000 |       1.0000 |xxxxxxxxxxxxx |xxxxxxxxxxxxx |xxxxxxxxxxxxx |xxxxxxxxxxxxx |       1.0000 |       1.0000 |       1.0000 |xxxxxxxxxxxxx |xxxxxxxxxxxxx |xxxxxxxxxxxxx |xxxxxxxxxxxxx |       1.0000 |       1.0000 |       1.0000 |xxxxxxxxxxxxx |xxxxxxxxxxxxx |xxxxxxxxxxxxx |xxxxxxxxxxxxx |       1.0000 |       1.0000 |       1.0000 |xxxxxxxxxxxxx |xxxxxxxxxxxxx |xxxxxxxxxxxxx |xxxxxxxxxxxxx |       1.0000 |       1.0000 |       1.0000 |xxxxxxxxxxxxx |xxxxxxxxxxxxx |xxxxxxxxxxxxx |xxxxxxxxxxxxx |       1.0000 |       1.0000 |       1.0000 |
bpred_bimod.bpred_jr_non_ras_rate.PP       <error: |      <error: |      <error: |xxxxxxxxxxxxx |xxxxxxxxxxxxx |xxxxxxxxxxxxx |xxxxxxxxxxxxx |      <error: |      <error: |      <error: |xxxxxxxxxxxxx |xxxxxxxxxxxxx |xxxxxxxxxxxxx |xxxxxxxxxxxxx |      <error: |      <error: |      <error: |xxxxxxxxxxxxx |xxxxxxxxxxxxx |xxxxxxxxxxxxx |xxxxxxxxxxxxx |      <error: |      <error: |      <error: |xxxxxxxxxxxxx |xxxxxxxxxxxxx |xxxxxxxxxxxxx |xxxxxxxxxxxxx |      <error: |      <error: |      <error: |xxxxxxxxxxxxx |xxxxxxxxxxxxx |xxxxxxxxxxxxx |xxxxxxxxxxxxx |      <error: |      <error: |      <error: |xxxxxxxxxxxxx |xxxxxxxxxxxxx |xxxxxxxxxxxxx |xxxxxxxxxxxxx |      <error: |      <error: |      <error: |xxxxxxxxxxxxx |xxxxxxxxxxxxx |xxxxxxxxxxxxx |xxxxxxxxxxxxx |      <error: |      <error: |      <error: |xxxxxxxxxxxxx |xxxxxxxxxxxxx |xxxxxxxxxxxxx |xxxxxxxxxxxxx |       0.0000 |       0.0000 |       0.0000 |xxxxxxxxxxxxx |xxxxxxxxxxxxx |xxxxxxxxxxxxx |xxxxxxxxxxxxx |       0.0000 |       0.0000 |       0.0000 |xxxxxxxxxxxxx |xxxxxxxxxxxxx |xxxxxxxxxxxxx |xxxxxxxxxxxxx |       0.0000 |       0.0000 |       0.0000 |
bpred_bimod.retstack_pushes                   4159 |         4159 |         4159 |xxxxxxxxxxxxx |xxxxxxxxxxxxx |xxxxxxxxxxxxx |xxxxxxxxxxxxx |         8264 |         8264 |         8264 |xxxxxxxxxxxxx |xxxxxxxxxxxxx |xxxxxxxxxxxxx |xxxxxxxxxxxxx |        16456 |        16456 |        16456 |xxxxxxxxxxxxx |xxxxxxxxxxxxx |xxxxxxxxxxxxx |xxxxxxxxxxxxx |        32840 |        32840 |        32840 |xxxxxxxxxxxxx |xxxxxxxxxxxxx |xxxxxxxxxxxxx |xxxxxxxxxxxxx |        65608 |        65608 |        65608 |xxxxxxxxxxxxx |xxxxxxxxxxxxx |xxxxxxxxxxxxx |xxxxxxxxxxxxx |       131144 |       131144 |       131144 |xxxxxxxxxxxxx |xxxxxxxxxxxxx |xxxxxxxxxxxxx |xxxxxxxxxxxxx |       262216 |       262216 |       262216 |xxxxxxxxxxxxx |xxxxxxxxxxxxx |xxxxxxxxxxxxx |xxxxxxxxxxxxx |       524360 |       524360 |       524360 |xxxxxxxxxxxxx |xxxxxxxxxxxxx |xxxxxxxxxxxxx |xxxxxxxxxxxxx |      1048650 |      1048650 |      1048650 |xxxxxxxxxxxxx |xxxxxxxxxxxxx |xxxxxxxxxxxxx |xxxxxxxxxxxxx |      2097226 |      2097226 |      2097226 |xxxxxxxxxxxxx |xxxxxxxxxxxxx |xxxxxxxxxxxxx |xxxxxxxxxxxxx |      4194378 |      4194378 |      4194378 |
bpred_bimod.retstack_pops                     4157 |         4157 |         4157 |xxxxxxxxxxxxx |xxxxxxxxxxxxx |xxxxxxxxxxxxx |xxxxxxxxxxxxx |         8262 |         8262 |         8262 |xxxxxxxxxxxxx |xxxxxxxxxxxxx |xxxxxxxxxxxxx |xxxxxxxxxxxxx |        16454 |        16454 |        16454 |xxxxxxxxxxxxx |xxxxxxxxxxxxx |xxxxxxxxxxxxx |xxxxxxxxxxxxx |        32838 |        32838 |        32838 |xxxxxxxxxxxxx |xxxxxxxxxxxxx |xxxxxxxxxxxxx |xxxxxxxxxxxxx |        65606 |        65606 |        65606 |xxxxxxxxxxxxx |xxxxxxxxxxxxx |xxxxxxxxxxxxx |xxxxxxxxxxxxx |       131142 |       131142 |       131142 |xxxxxxxxxxxxx |xxxxxxxxxxxxx |xxxxxxxxxxxxx |xxxxxxxxxxxxx |       262214 |       262214 |       262214 |xxxxxxxxxxxxx |xxxxxxxxxxxxx |xxxxxxxxxxxxx |xxxxxxxxxxxxx |       524358 |       524358 |       524358 |xxxxxxxxxxxxx |xxxxxxxxxxxxx |xxxxxxxxxxxxx |xxxxxxxxxxxxx |      1048648 |      1048648 |      1048648 |xxxxxxxxxxxxx |xxxxxxxxxxxxx |xxxxxxxxxxxxx |xxxxxxxxxxxxx |      2097224 |      2097224 |      2097224 |xxxxxxxxxxxxx |xxxxxxxxxxxxx |xxxxxxxxxxxxx |xxxxxxxxxxxxx |      4194376 |      4194376 |      4194376 |
bpred_bimod.used_ras.PP                       4157 |         4157 |         4157 |xxxxxxxxxxxxx |xxxxxxxxxxxxx |xxxxxxxxxxxxx |xxxxxxxxxxxxx |         8262 |         8262 |         8262 |xxxxxxxxxxxxx |xxxxxxxxxxxxx |xxxxxxxxxxxxx |xxxxxxxxxxxxx |        16454 |        16454 |        16454 |xxxxxxxxxxxxx |xxxxxxxxxxxxx |xxxxxxxxxxxxx |xxxxxxxxxxxxx |        32838 |        32838 |        32838 |xxxxxxxxxxxxx |xxxxxxxxxxxxx |xxxxxxxxxxxxx |xxxxxxxxxxxxx |        65606 |        65606 |        65606 |xxxxxxxxxxxxx |xxxxxxxxxxxxx |xxxxxxxxxxxxx |xxxxxxxxxxxxx |       131142 |       131142 |       131142 |xxxxxxxxxxxxx |xxxxxxxxxxxxx |xxxxxxxxxxxxx |xxxxxxxxxxxxx |       262214 |       262214 |       262214 |xxxxxxxxxxxxx |xxxxxxxxxxxxx |xxxxxxxxxxxxx |xxxxxxxxxxxxx |       524358 |       524358 |       524358 |xxxxxxxxxxxxx |xxxxxxxxxxxxx |xxxxxxxxxxxxx |xxxxxxxxxxxxx |      1048648 |      1048648 |      1048648 |xxxxxxxxxxxxx |xxxxxxxxxxxxx |xxxxxxxxxxxxx |xxxxxxxxxxxxx |      2097224 |      2097224 |      2097224 |xxxxxxxxxxxxx |xxxxxxxxxxxxx |xxxxxxxxxxxxx |xxxxxxxxxxxxx |      4194376 |      4194376 |      4194376 |
bpred_bimod.ras_hits.PP                       4157 |         4157 |         4157 |xxxxxxxxxxxxx |xxxxxxxxxxxxx |xxxxxxxxxxxxx |xxxxxxxxxxxxx |         8261 |         8261 |         8261 |xxxxxxxxxxxxx |xxxxxxxxxxxxx |xxxxxxxxxxxxx |xxxxxxxxxxxxx |        16453 |        16453 |        16453 |xxxxxxxxxxxxx |xxxxxxxxxxxxx |xxxxxxxxxxxxx |xxxxxxxxxxxxx |        32837 |        32837 |        32837 |xxxxxxxxxxxxx |xxxxxxxxxxxxx |xxxxxxxxxxxxx |xxxxxxxxxxxxx |        65605 |        65605 |        65605 |xxxxxxxxxxxxx |xxxxxxxxxxxxx |xxxxxxxxxxxxx |xxxxxxxxxxxxx |       131141 |       131141 |       131141 |xxxxxxxxxxxxx |xxxxxxxxxxxxx |xxxxxxxxxxxxx |xxxxxxxxxxxxx |       262213 |       262213 |       262213 |xxxxxxxxxxxxx |xxxxxxxxxxxxx |xxxxxxxxxxxxx |xxxxxxxxxxxxx |       524357 |       524357 |       524357 |xxxxxxxxxxxxx |xxxxxxxxxxxxx |xxxxxxxxxxxxx |xxxxxxxxxxxxx |      1048648 |      1048648 |      1048648 |xxxxxxxxxxxxx |xxxxxxxxxxxxx |xxxxxxxxxxxxx |xxxxxxxxxxxxx |      2097224 |      2097224 |      2097224 |xxxxxxxxxxxxx |xxxxxxxxxxxxx |xxxxxxxxxxxxx |xxxxxxxxxxxxx |      4194376 |      4194376 |      4194376 |
bpred_bimod.ras_rate.PP                     1.0000 |       1.0000 |       1.0000 |xxxxxxxxxxxxx |xxxxxxxxxxxxx |xxxxxxxxxxxxx |xxxxxxxxxxxxx |       0.9999 |       0.9999 |       0.9999 |xxxxxxxxxxxxx |xxxxxxxxxxxxx |xxxxxxxxxxxxx |xxxxxxxxxxxxx |       0.9999 |       0.9999 |       0.9999 |xxxxxxxxxxxxx |xxxxxxxxxxxxx |xxxxxxxxxxxxx |xxxxxxxxxxxxx |       1.0000 |       1.0000 |       1.0000 |xxxxxxxxxxxxx |xxxxxxxxxxxxx |xxxxxxxxxxxxx |xxxxxxxxxxxxx |       1.0000 |       1.0000 |       1.0000 |xxxxxxxxxxxxx |xxxxxxxxxxxxx |xxxxxxxxxxxxx |xxxxxxxxxxxxx |       1.0000 |       1.0000 |       1.0000 |xxxxxxxxxxxxx |xxxxxxxxxxxxx |xxxxxxxxxxxxx |xxxxxxxxxxxxx |       1.0000 |       1.0000 |       1.0000 |xxxxxxxxxxxxx |xxxxxxxxxxxxx |xxxxxxxxxxxxx |xxxxxxxxxxxxx |       1.0000 |       1.0000 |       1.0000 |xxxxxxxxxxxxx |xxxxxxxxxxxxx |xxxxxxxxxxxxx |xxxxxxxxxxxxx |       1.0000 |       1.0000 |       1.0000 |xxxxxxxxxxxxx |xxxxxxxxxxxxx |xxxxxxxxxxxxx |xxxxxxxxxxxxx |       1.0000 |       1.0000 |       1.0000 |xxxxxxxxxxxxx |xxxxxxxxxxxxx |xxxxxxxxxxxxx |xxxxxxxxxxxxx |       1.0000 |       1.0000 |       1.0000 |
bpred_2lev.lookups                   xxxxxxxxxxxxx |xxxxxxxxxxxxx |xxxxxxxxxxxxx |       155248 |       155248 |       155248 |       155248 |xxxxxxxxxxxxx |xxxxxxxxxxxxx |xxxxxxxxxxxxx |       333340 |       333340 |       333340 |       333340 |xxxxxxxxxxxxx |xxxxxxxxxxxxx |xxxxxxxxxxxxx |       715916 |       715916 |       715916 |       715916 |xxxxxxxxxxxxx |xxxxxxxxxxxxx |xxxxxxxxxxxxx |      1526813 |      1526813 |      1526813 |      1526813 |xxxxxxxxxxxxx |xxxxxxxxxxxxx |xxxxxxxxxxxxx |      3253033 |      3253033 |      3253033 |      3253033 |xxxxxxxxxxxxx |xxxxxxxxxxxxx |xxxxxxxxxxxxx |      6893130 |      6893130 |      6893130 |      6893130 |xxxxxxxxxxxxx |xxxxxxxxxxxxx |xxxxxxxxxxxxx |     14577181 |     14577181 |     14577181 |     14577181 |xxxxxxxxxxxxx |xxxxxxxxxxxxx |xxxxxxxxxxxxx |     30713255 |     30713255 |     30713255 |     30713255 |xxxxxxxxxxxxx |xxxxxxxxxxxxx |xxxxxxxxxxxxx |     64602799 |     64602799 |     64602799 |     64602799 |xxxxxxxxxxxxx |xxxxxxxxxxxxx |xxxxxxxxxxxxx |    135419945 |    135419945 |    135419945 |    135419945 |xxxxxxxxxxxxx |xxxxxxxxxxxxx |xxxxxxxxxxxxx |    283580927 |    283580927 |    283580927 |    283580927 |
[...]
bpred_2lev.retstack_pops             xxxxxxxxxxxxx |xxxxxxxxxxxxx |xxxxxxxxxxxxx |         4157 |         4157 |         4157 |         4157 |xxxxxxxxxxxxx |xxxxxxxxxxxxx |xxxxxxxxxxxxx |         8262 |         8262 |         8262 |         8262 |xxxxxxxxxxxxx |xxxxxxxxxxxxx |xxxxxxxxxxxxx |        16454 |        16454 |        16454 |        16454 |xxxxxxxxxxxxx |xxxxxxxxxxxxx |xxxxxxxxxxxxx |        32838 |        32838 |        32838 |        32838 |xxxxxxxxxxxxx |xxxxxxxxxxxxx |xxxxxxxxxxxxx |        65606 |        65606 |        65606 |        65606 |xxxxxxxxxxxxx |xxxxxxxxxxxxx |xxxxxxxxxxxxx |       131142 |       131142 |       131142 |       131142 |xxxxxxxxxxxxx |xxxxxxxxxxxxx |xxxxxxxxxxxxx |       262214 |       262214 |       262214 |       262214 |xxxxxxxxxxxxx |xxxxxxxxxxxxx |xxxxxxxxxxxxx |       524358 |       524358 |       524358 |       524358 |xxxxxxxxxxxxx |xxxxxxxxxxxxx |xxxxxxxxxxxxx |      1048648 |      1048648 |      1048648 |      1048648 |xxxxxxxxxxxxx |xxxxxxxxxxxxx |xxxxxxxxxxxxx |      2097224 |      2097224 |      2097224 |      2097224 |xxxxxxxxxxxxx |xxxxxxxxxxxxx |xxxxxxxxxxxxx |      4194376 |      4194376 |      4194376 |      4194376 |
bpred_2lev.used_ras.PP               xxxxxxxxxxxxx |xxxxxxxxxxxxx |xxxxxxxxxxxxx |         4157 |         4157 |         4157 |         4157 |xxxxxxxxxxxxx |xxxxxxxxxxxxx |xxxxxxxxxxxxx |         8262 |         8262 |         8262 |         8262 |xxxxxxxxxxxxx |xxxxxxxxxxxxx |xxxxxxxxxxxxx |        16454 |        16454 |        16454 |        16454 |xxxxxxxxxxxxx |xxxxxxxxxxxxx |xxxxxxxxxxxxx |        32838 |        32838 |        32838 |        32838 |xxxxxxxxxxxxx |xxxxxxxxxxxxx |xxxxxxxxxxxxx |        65606 |        65606 |        65606 |        65606 |xxxxxxxxxxxxx |xxxxxxxxxxxxx |xxxxxxxxxxxxx |       131142 |       131142 |       131142 |       131142 |xxxxxxxxxxxxx |xxxxxxxxxxxxx |xxxxxxxxxxxxx |       262214 |       262214 |       262214 |       262214 |xxxxxxxxxxxxx |xxxxxxxxxxxxx |xxxxxxxxxxxxx |       524358 |       524358 |       524358 |       524358 |xxxxxxxxxxxxx |xxxxxxxxxxxxx |xxxxxxxxxxxxx |      1048648 |      1048648 |      1048648 |      1048648 |xxxxxxxxxxxxx |xxxxxxxxxxxxx |xxxxxxxxxxxxx |      2097224 |      2097224 |      2097224 |      2097224 |xxxxxxxxxxxxx |xxxxxxxxxxxxx |xxxxxxxxxxxxx |      4194376 |      4194376 |      4194376 |      4194376 |
bpred_2lev.ras_hits.PP               xxxxxxxxxxxxx |xxxxxxxxxxxxx |xxxxxxxxxxxxx |         4157 |         4157 |         4157 |         4157 |xxxxxxxxxxxxx |xxxxxxxxxxxxx |xxxxxxxxxxxxx |         8261 |         8261 |         8261 |         8261 |xxxxxxxxxxxxx |xxxxxxxxxxxxx |xxxxxxxxxxxxx |        16453 |        16453 |        16453 |        16453 |xxxxxxxxxxxxx |xxxxxxxxxxxxx |xxxxxxxxxxxxx |        32837 |        32837 |        32837 |        32837 |xxxxxxxxxxxxx |xxxxxxxxxxxxx |xxxxxxxxxxxxx |        65605 |        65605 |        65605 |        65605 |xxxxxxxxxxxxx |xxxxxxxxxxxxx |xxxxxxxxxxxxx |       131141 |       131141 |       131141 |       131141 |xxxxxxxxxxxxx |xxxxxxxxxxxxx |xxxxxxxxxxxxx |       262213 |       262213 |       262213 |       262213 |xxxxxxxxxxxxx |xxxxxxxxxxxxx |xxxxxxxxxxxxx |       524357 |       524357 |       524357 |       524357 |xxxxxxxxxxxxx |xxxxxxxxxxxxx |xxxxxxxxxxxxx |      1048648 |      1048648 |      1048648 |      1048648 |xxxxxxxxxxxxx |xxxxxxxxxxxxx |xxxxxxxxxxxxx |      2097224 |      2097224 |      2097224 |      2097224 |xxxxxxxxxxxxx |xxxxxxxxxxxxx |xxxxxxxxxxxxx |      4194376 |      4194376 |      4194376 |      4194376 |
bpred_2lev.ras_rate.PP               xxxxxxxxxxxxx |xxxxxxxxxxxxx |xxxxxxxxxxxxx |       1.0000 |       1.0000 |       1.0000 |       1.0000 |xxxxxxxxxxxxx |xxxxxxxxxxxxx |xxxxxxxxxxxxx |       0.9999 |       0.9999 |       0.9999 |       0.9999 |xxxxxxxxxxxxx |xxxxxxxxxxxxx |xxxxxxxxxxxxx |       0.9999 |       0.9999 |       0.9999 |       0.9999 |xxxxxxxxxxxxx |xxxxxxxxxxxxx |xxxxxxxxxxxxx |       1.0000 |       1.0000 |       1.0000 |       1.0000 |xxxxxxxxxxxxx |xxxxxxxxxxxxx |xxxxxxxxxxxxx |       1.0000 |       1.0000 |       1.0000 |       1.0000 |xxxxxxxxxxxxx |xxxxxxxxxxxxx |xxxxxxxxxxxxx |       1.0000 |       1.0000 |       1.0000 |       1.0000 |xxxxxxxxxxxxx |xxxxxxxxxxxxx |xxxxxxxxxxxxx |       1.0000 |       1.0000 |       1.0000 |       1.0000 |xxxxxxxxxxxxx |xxxxxxxxxxxxx |xxxxxxxxxxxxx |       1.0000 |       1.0000 |       1.0000 |       1.0000 |xxxxxxxxxxxxx |xxxxxxxxxxxxx |xxxxxxxxxxxxx |       1.0000 |       1.0000 |       1.0000 |       1.0000 |xxxxxxxxxxxxx |xxxxxxxxxxxxx |xxxxxxxxxxxxx |       1.0000 |       1.0000 |       1.0000 |       1.0000 |xxxxxxxxxxxxx |xxxxxxxxxxxxx |xxxxxxxxxxxxx |       1.0000 |       1.0000 |       1.0000 |       1.0000 |

Command list: 
	sslittle-na-sstrix-gcc -Wall -O3 -funroll-loops -finline-functions  -DRANDOM_SIZE=4096 -DOFFSET=3 -DSORT=memory_tuned4_heapsort sorts/memory_tuned4_heapsort2113617567.c simpleMain.c -o memory_tuned4_heapsort1477337300
	sim-cache -cache:dl1 dl1:256:32:1:l -cache:dl2 dl2:131072:32:1:l -cache:il1 il1:256:32:1:l -cache:il2 dl2 memory_tuned4_heapsort1477337300
	sim-cache -cache:dl1 dl1:256:32:1:l -cache:dl2 dl2:65536:32:1:l -cache:il1 il1:256:32:1:l -cache:il2 dl2 memory_tuned4_heapsort1477337300
	sim-cache -cache:dl1 dl1:1:32:256:l -cache:dl2 dl2:1:32:131072:l -cache:il1 il1:1:32:256:l -cache:il2 dl2 memory_tuned4_heapsort1477337300
	sim-cache -cache:dl1 dl1:1:32:256:l -cache:dl2 dl2:1:32:65536:l -cache:il1 il1:1:32:256:l -cache:il2 dl2 memory_tuned4_heapsort1477337300
	sim-bpred -bpred bimod -bpred:bimod 512 memory_tuned4_heapsort1477337300
	sim-bpred -bpred bimod -bpred:bimod 1024 memory_tuned4_heapsort1477337300
	sim-bpred -bpred bimod -bpred:bimod 2048 memory_tuned4_heapsort1477337300
	sim-bpred -bpred 2lev -bpred:2lev 1 512 10 1 memory_tuned4_heapsort1477337300
	sim-bpred -bpred 2lev -bpred:2lev 1 1024 10 1 memory_tuned4_heapsort1477337300
	sim-bpred -bpred 2lev -bpred:2lev 1 2048 10 1 memory_tuned4_heapsort1477337300
	sim-bpred -bpred 2lev -bpred:2lev 1 4096 10 1 memory_tuned4_heapsort1477337300
	sslittle-na-sstrix-gcc -Wall -O3 -funroll-loops -finline-functions  -DRANDOM_SIZE=8192 -DOFFSET=3 -DSORT=memory_tuned4_heapsort sorts/memory_tuned4_heapsort2113617567.c simpleMain.c -o memory_tuned4_heapsort1477337300
	sim-cache -cache:dl1 dl1:256:32:1:l -cache:dl2 dl2:131072:32:1:l -cache:il1 il1:256:32:1:l -cache:il2 dl2 memory_tuned4_heapsort1477337300
	sim-cache -cache:dl1 dl1:256:32:1:l -cache:dl2 dl2:65536:32:1:l -cache:il1 il1:256:32:1:l -cache:il2 dl2 memory_tuned4_heapsort1477337300
	sim-cache -cache:dl1 dl1:1:32:256:l -cache:dl2 dl2:1:32:131072:l -cache:il1 il1:1:32:256:l -cache:il2 dl2 memory_tuned4_heapsort1477337300
	sim-cache -cache:dl1 dl1:1:32:256:l -cache:dl2 dl2:1:32:65536:l -cache:il1 il1:1:32:256:l -cache:il2 dl2 memory_tuned4_heapsort1477337300
	sim-bpred -bpred bimod -bpred:bimod 512 memory_tuned4_heapsort1477337300
	sim-bpred -bpred bimod -bpred:bimod 1024 memory_tuned4_heapsort1477337300
	sim-bpred -bpred bimod -bpred:bimod 2048 memory_tuned4_heapsort1477337300
	sim-bpred -bpred 2lev -bpred:2lev 1 512 10 1 memory_tuned4_heapsort1477337300
	sim-bpred -bpred 2lev -bpred:2lev 1 1024 10 1 memory_tuned4_heapsort1477337300
	sim-bpred -bpred 2lev -bpred:2lev 1 2048 10 1 memory_tuned4_heapsort1477337300
	sim-bpred -bpred 2lev -bpred:2lev 1 4096 10 1 memory_tuned4_heapsort1477337300
	sslittle-na-sstrix-gcc -Wall -O3 -funroll-loops -finline-functions  -DRANDOM_SIZE=16384 -DOFFSET=3 -DSORT=memory_tuned4_heapsort sorts/memory_tuned4_heapsort2113617567.c simpleMain.c -o memory_tuned4_heapsort1477337300
	sim-cache -cache:dl1 dl1:256:32:1:l -cache:dl2 dl2:131072:32:1:l -cache:il1 il1:256:32:1:l -cache:il2 dl2 memory_tuned4_heapsort1477337300
	sim-cache -cache:dl1 dl1:256:32:1:l -cache:dl2 dl2:65536:32:1:l -cache:il1 il1:256:32:1:l -cache:il2 dl2 memory_tuned4_heapsort1477337300
	sim-cache -cache:dl1 dl1:1:32:256:l -cache:dl2 dl2:1:32:131072:l -cache:il1 il1:1:32:256:l -cache:il2 dl2 memory_tuned4_heapsort1477337300
	sim-cache -cache:dl1 dl1:1:32:256:l -cache:dl2 dl2:1:32:65536:l -cache:il1 il1:1:32:256:l -cache:il2 dl2 memory_tuned4_heapsort1477337300
	sim-bpred -bpred bimod -bpred:bimod 512 memory_tuned4_heapsort1477337300
	sim-bpred -bpred bimod -bpred:bimod 1024 memory_tuned4_heapsort1477337300
	sim-bpred -bpred bimod -bpred:bimod 2048 memory_tuned4_heapsort1477337300
	sim-bpred -bpred 2lev -bpred:2lev 1 512 10 1 memory_tuned4_heapsort1477337300
	sim-bpred -bpred 2lev -bpred:2lev 1 1024 10 1 memory_tuned4_heapsort1477337300
	sim-bpred -bpred 2lev -bpred:2lev 1 2048 10 1 memory_tuned4_heapsort1477337300
	sim-bpred -bpred 2lev -bpred:2lev 1 4096 10 1 memory_tuned4_heapsort1477337300
	sslittle-na-sstrix-gcc -Wall -O3 -funroll-loops -finline-functions  -DRANDOM_SIZE=32768 -DOFFSET=3 -DSORT=memory_tuned4_heapsort sorts/memory_tuned4_heapsort2113617567.c simpleMain.c -o memory_tuned4_heapsort1477337300
	sim-cache -cache:dl1 dl1:256:32:1:l -cache:dl2 dl2:131072:32:1:l -cache:il1 il1:256:32:1:l -cache:il2 dl2 memory_tuned4_heapsort1477337300
	sim-cache -cache:dl1 dl1:256:32:1:l -cache:dl2 dl2:65536:32:1:l -cache:il1 il1:256:32:1:l -cache:il2 dl2 memory_tuned4_heapsort1477337300
	sim-cache -cache:dl1 dl1:1:32:256:l -cache:dl2 dl2:1:32:131072:l -cache:il1 il1:1:32:256:l -cache:il2 dl2 memory_tuned4_heapsort1477337300
	sim-cache -cache:dl1 dl1:1:32:256:l -cache:dl2 dl2:1:32:65536:l -cache:il1 il1:1:32:256:l -cache:il2 dl2 memory_tuned4_heapsort1477337300
	sim-bpred -bpred bimod -bpred:bimod 512 memory_tuned4_heapsort1477337300
	sim-bpred -bpred bimod -bpred:bimod 1024 memory_tuned4_heapsort1477337300
	sim-bpred -bpred bimod -bpred:bimod 2048 memory_tuned4_heapsort1477337300
	sim-bpred -bpred 2lev -bpred:2lev 1 512 10 1 memory_tuned4_heapsort1477337300
	sim-bpred -bpred 2lev -bpred:2lev 1 1024 10 1 memory_tuned4_heapsort1477337300
	sim-bpred -bpred 2lev -bpred:2lev 1 2048 10 1 memory_tuned4_heapsort1477337300
	sim-bpred -bpred 2lev -bpred:2lev 1 4096 10 1 memory_tuned4_heapsort1477337300
	sslittle-na-sstrix-gcc -Wall -O3 -funroll-loops -finline-functions  -DRANDOM_SIZE=65536 -DOFFSET=3 -DSORT=memory_tuned4_heapsort sorts/memory_tuned4_heapsort2113617567.c simpleMain.c -o memory_tuned4_heapsort1477337300
	sim-cache -cache:dl1 dl1:256:32:1:l -cache:dl2 dl2:131072:32:1:l -cache:il1 il1:256:32:1:l -cache:il2 dl2 memory_tuned4_heapsort1477337300
	sim-cache -cache:dl1 dl1:256:32:1:l -cache:dl2 dl2:65536:32:1:l -cache:il1 il1:256:32:1:l -cache:il2 dl2 memory_tuned4_heapsort1477337300
	sim-cache -cache:dl1 dl1:1:32:256:l -cache:dl2 dl2:1:32:131072:l -cache:il1 il1:1:32:256:l -cache:il2 dl2 memory_tuned4_heapsort1477337300
	sim-cache -cache:dl1 dl1:1:32:256:l -cache:dl2 dl2:1:32:65536:l -cache:il1 il1:1:32:256:l -cache:il2 dl2 memory_tuned4_heapsort1477337300
	sim-bpred -bpred bimod -bpred:bimod 512 memory_tuned4_heapsort1477337300
	sim-bpred -bpred bimod -bpred:bimod 1024 memory_tuned4_heapsort1477337300
	sim-bpred -bpred bimod -bpred:bimod 2048 memory_tuned4_heapsort1477337300
	sim-bpred -bpred 2lev -bpred:2lev 1 512 10 1 memory_tuned4_heapsort1477337300
	sim-bpred -bpred 2lev -bpred:2lev 1 1024 10 1 memory_tuned4_heapsort1477337300
	sim-bpred -bpred 2lev -bpred:2lev 1 2048 10 1 memory_tuned4_heapsort1477337300
	sim-bpred -bpred 2lev -bpred:2lev 1 4096 10 1 memory_tuned4_heapsort1477337300
	sslittle-na-sstrix-gcc -Wall -O3 -funroll-loops -finline-functions  -DRANDOM_SIZE=131072 -DOFFSET=3 -DSORT=memory_tuned4_heapsort sorts/memory_tuned4_heapsort2113617567.c simpleMain.c -o memory_tuned4_heapsort1477337300
	sim-cache -cache:dl1 dl1:256:32:1:l -cache:dl2 dl2:131072:32:1:l -cache:il1 il1:256:32:1:l -cache:il2 dl2 memory_tuned4_heapsort1477337300
	sim-cache -cache:dl1 dl1:256:32:1:l -cache:dl2 dl2:65536:32:1:l -cache:il1 il1:256:32:1:l -cache:il2 dl2 memory_tuned4_heapsort1477337300
	sim-cache -cache:dl1 dl1:1:32:256:l -cache:dl2 dl2:1:32:131072:l -cache:il1 il1:1:32:256:l -cache:il2 dl2 memory_tuned4_heapsort1477337300
	sim-cache -cache:dl1 dl1:1:32:256:l -cache:dl2 dl2:1:32:65536:l -cache:il1 il1:1:32:256:l -cache:il2 dl2 memory_tuned4_heapsort1477337300
	sim-bpred -bpred bimod -bpred:bimod 512 memory_tuned4_heapsort1477337300
	sim-bpred -bpred bimod -bpred:bimod 1024 memory_tuned4_heapsort1477337300
	sim-bpred -bpred bimod -bpred:bimod 2048 memory_tuned4_heapsort1477337300
	sim-bpred -bpred 2lev -bpred:2lev 1 512 10 1 memory_tuned4_heapsort1477337300
	sim-bpred -bpred 2lev -bpred:2lev 1 1024 10 1 memory_tuned4_heapsort1477337300
	sim-bpred -bpred 2lev -bpred:2lev 1 2048 10 1 memory_tuned4_heapsort1477337300
	sim-bpred -bpred 2lev -bpred:2lev 1 4096 10 1 memory_tuned4_heapsort1477337300
	sslittle-na-sstrix-gcc -Wall -O3 -funroll-loops -finline-functions  -DRANDOM_SIZE=262144 -DOFFSET=3 -DSORT=memory_tuned4_heapsort sorts/memory_tuned4_heapsort2113617567.c simpleMain.c -o memory_tuned4_heapsort1477337300
	sim-cache -cache:dl1 dl1:256:32:1:l -cache:dl2 dl2:131072:32:1:l -cache:il1 il1:256:32:1:l -cache:il2 dl2 memory_tuned4_heapsort1477337300
	sim-cache -cache:dl1 dl1:256:32:1:l -cache:dl2 dl2:65536:32:1:l -cache:il1 il1:256:32:1:l -cache:il2 dl2 memory_tuned4_heapsort1477337300
	sim-cache -cache:dl1 dl1:1:32:256:l -cache:dl2 dl2:1:32:131072:l -cache:il1 il1:1:32:256:l -cache:il2 dl2 memory_tuned4_heapsort1477337300
	sim-cache -cache:dl1 dl1:1:32:256:l -cache:dl2 dl2:1:32:65536:l -cache:il1 il1:1:32:256:l -cache:il2 dl2 memory_tuned4_heapsort1477337300
	sim-bpred -bpred bimod -bpred:bimod 512 memory_tuned4_heapsort1477337300
	sim-bpred -bpred bimod -bpred:bimod 1024 memory_tuned4_heapsort1477337300
	sim-bpred -bpred bimod -bpred:bimod 2048 memory_tuned4_heapsort1477337300
	sim-bpred -bpred 2lev -bpred:2lev 1 512 10 1 memory_tuned4_heapsort1477337300
	sim-bpred -bpred 2lev -bpred:2lev 1 1024 10 1 memory_tuned4_heapsort1477337300
	sim-bpred -bpred 2lev -bpred:2lev 1 2048 10 1 memory_tuned4_heapsort1477337300
	sim-bpred -bpred 2lev -bpred:2lev 1 4096 10 1 memory_tuned4_heapsort1477337300
	sslittle-na-sstrix-gcc -Wall -O3 -funroll-loops -finline-functions  -DRANDOM_SIZE=524288 -DOFFSET=3 -DSORT=memory_tuned4_heapsort sorts/memory_tuned4_heapsort2113617567.c simpleMain.c -o memory_tuned4_heapsort1477337300
	sim-cache -cache:dl1 dl1:256:32:1:l -cache:dl2 dl2:131072:32:1:l -cache:il1 il1:256:32:1:l -cache:il2 dl2 memory_tuned4_heapsort1477337300
	sim-cache -cache:dl1 dl1:256:32:1:l -cache:dl2 dl2:65536:32:1:l -cache:il1 il1:256:32:1:l -cache:il2 dl2 memory_tuned4_heapsort1477337300
	sim-cache -cache:dl1 dl1:1:32:256:l -cache:dl2 dl2:1:32:131072:l -cache:il1 il1:1:32:256:l -cache:il2 dl2 memory_tuned4_heapsort1477337300
	sim-cache -cache:dl1 dl1:1:32:256:l -cache:dl2 dl2:1:32:65536:l -cache:il1 il1:1:32:256:l -cache:il2 dl2 memory_tuned4_heapsort1477337300
	sim-bpred -bpred bimod -bpred:bimod 512 memory_tuned4_heapsort1477337300
	sim-bpred -bpred bimod -bpred:bimod 1024 memory_tuned4_heapsort1477337300
	sim-bpred -bpred bimod -bpred:bimod 2048 memory_tuned4_heapsort1477337300
	sim-bpred -bpred 2lev -bpred:2lev 1 512 10 1 memory_tuned4_heapsort1477337300
	sim-bpred -bpred 2lev -bpred:2lev 1 1024 10 1 memory_tuned4_heapsort1477337300
	sim-bpred -bpred 2lev -bpred:2lev 1 2048 10 1 memory_tuned4_heapsort1477337300
	sim-bpred -bpred 2lev -bpred:2lev 1 4096 10 1 memory_tuned4_heapsort1477337300
	sslittle-na-sstrix-gcc -Wall -O3 -funroll-loops -finline-functions  -DRANDOM_SIZE=1048576 -DOFFSET=3 -DSORT=memory_tuned4_heapsort sorts/memory_tuned4_heapsort2113617567.c simpleMain.c -o memory_tuned4_heapsort1477337300
	sim-cache -cache:dl1 dl1:256:32:1:l -cache:dl2 dl2:131072:32:1:l -cache:il1 il1:256:32:1:l -cache:il2 dl2 memory_tuned4_heapsort1477337300
	sim-cache -cache:dl1 dl1:256:32:1:l -cache:dl2 dl2:65536:32:1:l -cache:il1 il1:256:32:1:l -cache:il2 dl2 memory_tuned4_heapsort1477337300
	sim-cache -cache:dl1 dl1:1:32:256:l -cache:dl2 dl2:1:32:131072:l -cache:il1 il1:1:32:256:l -cache:il2 dl2 memory_tuned4_heapsort1477337300
	sim-cache -cache:dl1 dl1:1:32:256:l -cache:dl2 dl2:1:32:65536:l -cache:il1 il1:1:32:256:l -cache:il2 dl2 memory_tuned4_heapsort1477337300
	sim-bpred -bpred bimod -bpred:bimod 512 memory_tuned4_heapsort1477337300
	sim-bpred -bpred bimod -bpred:bimod 1024 memory_tuned4_heapsort1477337300
	sim-bpred -bpred bimod -bpred:bimod 2048 memory_tuned4_heapsort1477337300
	sim-bpred -bpred 2lev -bpred:2lev 1 512 10 1 memory_tuned4_heapsort1477337300
	sim-bpred -bpred 2lev -bpred:2lev 1 1024 10 1 memory_tuned4_heapsort1477337300
	sim-bpred -bpred 2lev -bpred:2lev 1 2048 10 1 memory_tuned4_heapsort1477337300
	sim-bpred -bpred 2lev -bpred:2lev 1 4096 10 1 memory_tuned4_heapsort1477337300
	sslittle-na-sstrix-gcc -Wall -O3 -funroll-loops -finline-functions  -DRANDOM_SIZE=2097152 -DOFFSET=3 -DSORT=memory_tuned4_heapsort sorts/memory_tuned4_heapsort2113617567.c simpleMain.c -o memory_tuned4_heapsort1477337300
	sim-cache -cache:dl1 dl1:256:32:1:l -cache:dl2 dl2:131072:32:1:l -cache:il1 il1:256:32:1:l -cache:il2 dl2 memory_tuned4_heapsort1477337300
	sim-cache -cache:dl1 dl1:256:32:1:l -cache:dl2 dl2:65536:32:1:l -cache:il1 il1:256:32:1:l -cache:il2 dl2 memory_tuned4_heapsort1477337300
	sim-cache -cache:dl1 dl1:1:32:256:l -cache:dl2 dl2:1:32:131072:l -cache:il1 il1:1:32:256:l -cache:il2 dl2 memory_tuned4_heapsort1477337300
	sim-cache -cache:dl1 dl1:1:32:256:l -cache:dl2 dl2:1:32:65536:l -cache:il1 il1:1:32:256:l -cache:il2 dl2 memory_tuned4_heapsort1477337300
	sim-bpred -bpred bimod -bpred:bimod 512 memory_tuned4_heapsort1477337300
	sim-bpred -bpred bimod -bpred:bimod 1024 memory_tuned4_heapsort1477337300
	sim-bpred -bpred bimod -bpred:bimod 2048 memory_tuned4_heapsort1477337300
	sim-bpred -bpred 2lev -bpred:2lev 1 512 10 1 memory_tuned4_heapsort1477337300
	sim-bpred -bpred 2lev -bpred:2lev 1 1024 10 1 memory_tuned4_heapsort1477337300
	sim-bpred -bpred 2lev -bpred:2lev 1 2048 10 1 memory_tuned4_heapsort1477337300
	sim-bpred -bpred 2lev -bpred:2lev 1 4096 10 1 memory_tuned4_heapsort1477337300
	sslittle-na-sstrix-gcc -Wall -O3 -funroll-loops -finline-functions  -DRANDOM_SIZE=4194304 -DOFFSET=3 -DSORT=memory_tuned4_heapsort sorts/memory_tuned4_heapsort2113617567.c simpleMain.c -o memory_tuned4_heapsort1477337300
	sim-cache -cache:dl1 dl1:256:32:1:l -cache:dl2 dl2:131072:32:1:l -cache:il1 il1:256:32:1:l -cache:il2 dl2 memory_tuned4_heapsort1477337300
	sim-cache -cache:dl1 dl1:256:32:1:l -cache:dl2 dl2:65536:32:1:l -cache:il1 il1:256:32:1:l -cache:il2 dl2 memory_tuned4_heapsort1477337300
	sim-cache -cache:dl1 dl1:1:32:256:l -cache:dl2 dl2:1:32:131072:l -cache:il1 il1:1:32:256:l -cache:il2 dl2 memory_tuned4_heapsort1477337300
	sim-cache -cache:dl1 dl1:1:32:256:l -cache:dl2 dl2:1:32:65536:l -cache:il1 il1:1:32:256:l -cache:il2 dl2 memory_tuned4_heapsort1477337300
	sim-bpred -bpred bimod -bpred:bimod 512 memory_tuned4_heapsort1477337300
	sim-bpred -bpred bimod -bpred:bimod 1024 memory_tuned4_heapsort1477337300
	sim-bpred -bpred bimod -bpred:bimod 2048 memory_tuned4_heapsort1477337300
	sim-bpred -bpred 2lev -bpred:2lev 1 512 10 1 memory_tuned4_heapsort1477337300
	sim-bpred -bpred 2lev -bpred:2lev 1 1024 10 1 memory_tuned4_heapsort1477337300
	sim-bpred -bpred 2lev -bpred:2lev 1 2048 10 1 memory_tuned4_heapsort1477337300
	sim-bpred -bpred 2lev -bpred:2lev 1 4096 10 1 memory_tuned4_heapsort1477337300
