Thu Aug  4 14:44:52 2005
Run as: "./do_simple -c random.org9 -o 9 cache_heapsort"
-------------------------------------------------------------------------------------------------
sim-cache                                     4096 |         4096 |         4096 |         4096 |         8192 |         8192 |         8192 |         8192 |        16384 |        16384 |        16384 |        16384 |        32768 |        32768 |        32768 |        32768 |        65536 |        65536 |        65536 |        65536 |       131072 |       131072 |       131072 |       131072 |       262144 |       262144 |       262144 |       262144 |       524288 |       524288 |       524288 |       524288 |      1048576 |      1048576 |      1048576 |      1048576 |      2097152 |      2097152 |      2097152 |      2097152 |      4194304 |      4194304 |      4194304 |      4194304 |
-cache:dl1 dl1:256:32:1:l -cache:dl2 dl2:131072:32:1:l -cache:il1 il1:256:32:1:l -cache:il2 dl2
-cache:dl1 dl1:256:32:1:l -cache:dl2 dl2:65536:32:1:l -cache:il1 il1:256:32:1:l -cache:il2 dl2
-cache:dl1 dl1:1:32:256:l -cache:dl2 dl2:1:32:131072:l -cache:il1 il1:1:32:256:l -cache:il2 dl2
-cache:dl1 dl1:1:32:256:l -cache:dl2 dl2:1:32:65536:l -cache:il1 il1:1:32:256:l -cache:il2 dl2
-------------------------------------------------------------------------------------------------
sim_num_insn                               1018076 |      1018076 |      1018076 |      1018076 |      2191704 |      2191704 |      2191704 |      2191704 |      4725921 |      4725921 |      4725921 |      4725921 |     10005194 |     10005194 |     10005194 |     10005194 |     21293448 |     21293448 |     21293448 |     21293448 |     45461473 |     45461473 |     45461473 |     45461473 |     95388966 |     95388966 |     95388966 |     95388966 |    201137507 |    201137507 |    201137507 |    201137507 |    425221265 |    425221265 |    425221265 |    425221265 |    886161618 |    886161618 |    886161618 |    886161618 |   1855315003 |   1855315003 |   1855315003 |   1855315003 |
sim_num_refs                                280019 |       280019 |       280019 |       280019 |       600975 |       600975 |       600975 |       600975 |      1293962 |      1293962 |      1293962 |      1293962 |      2734207 |      2734207 |      2734207 |      2734207 |      5819229 |      5819229 |      5819229 |      5819229 |     12423499 |     12423499 |     12423499 |     12423499 |     26042605 |     26042605 |     26042605 |     26042605 |     54933674 |     54933674 |     54933674 |     54933674 |    116144864 |    116144864 |    116144864 |    116144864 |    241869675 |    241869675 |    241869675 |    241869675 |    506560643 |    506560643 |    506560643 |    506560643 |
sim_elapsed_time                                 1 |            1 |           10 |            5 |            1 |            1 |           16 |            8 |            1 |            2 |           26 |           14 |            3 |            3 |           48 |           25 |            6 |            6 |           89 |           45 |           13 |           12 |          165 |           77 |           28 |           28 |          286 |          113 |           58 |           56 |          403 |          144 |          119 |          119 |          472 |          212 |          253 |          252 |          617 |          361 |          530 |          529 |          920 |          667 |
sim_inst_rate                         1018076.0000 | 1018076.0000 |  101807.6000 |  203615.2000 | 2191704.0000 | 2191704.0000 |  136981.5000 |  273963.0000 | 4725921.0000 | 2362960.5000 |  181766.1923 |  337565.7857 | 3335064.6667 | 3335064.6667 |  208441.5417 |  400207.7600 | 3548908.0000 | 3548908.0000 |  239252.2247 |  473187.7333 | 3497036.3846 | 3788456.0833 |  275524.0788 |  590408.7403 | 3406748.7857 | 3406748.7857 |  333527.8531 |  844150.1416 | 3467888.0517 | 3591741.1964 |  499100.5136 | 1396788.2431 | 3573287.9412 | 3573287.9412 |  900892.5106 | 2005760.6840 | 3502615.0909 | 3516514.3571 | 1436242.4927 | 2454741.3241 | 3500594.3453 | 3507211.7259 | 2016646.7424 | 2781581.7136 |
il1.accesses                               1018076 |      1018076 |      1018076 |      1018076 |      2191704 |      2191704 |      2191704 |      2191704 |      4725921 |      4725921 |      4725921 |      4725921 |     10005194 |     10005194 |     10005194 |     10005194 |     21293448 |     21293448 |     21293448 |     21293448 |     45461473 |     45461473 |     45461473 |     45461473 |     95388966 |     95388966 |     95388966 |     95388966 |    201137507 |    201137507 |    201137507 |    201137507 |    425221265 |    425221265 |    425221265 |    425221265 |    886161618 |    886161618 |    886161618 |    886161618 |   1855315003 |   1855315003 |   1855315003 |   1855315003 |
il1.hits                                   1017548 |      1017548 |      1017636 |      1017636 |      2191136 |      2191136 |      2191245 |      2191245 |      4725352 |      4725352 |      4725466 |      4725466 |     10004627 |     10004627 |     10004734 |     10004734 |     21292881 |     21292881 |     21292988 |     21292988 |     45460906 |     45460906 |     45461014 |     45461014 |     95388399 |     95388399 |     95388507 |     95388507 |    201136940 |    201136940 |    201137048 |    201137048 |    425220662 |    425220662 |    425220772 |    425220772 |    886161015 |    886161015 |    886161125 |    886161125 |   1855314400 |   1855314400 |   1855314510 |   1855314510 |
il1.misses                                     528 |          528 |          440 |          440 |          568 |          568 |          459 |          459 |          569 |          569 |          455 |          455 |          567 |          567 |          460 |          460 |          567 |          567 |          460 |          460 |          567 |          567 |          459 |          459 |          567 |          567 |          459 |          459 |          567 |          567 |          459 |          459 |          603 |          603 |          493 |          493 |          603 |          603 |          493 |          493 |          603 |          603 |          493 |          493 |
il1.replacements                               315 |          315 |          184 |          184 |          347 |          347 |          203 |          203 |          348 |          348 |          199 |          199 |          346 |          346 |          204 |          204 |          346 |          346 |          204 |          204 |          346 |          346 |          203 |          203 |          346 |          346 |          203 |          203 |          346 |          346 |          203 |          203 |          387 |          387 |          237 |          237 |          387 |          387 |          237 |          237 |          387 |          387 |          237 |          237 |
il1.writebacks                                   0 |            0 |            0 |            0 |            0 |            0 |            0 |            0 |            0 |            0 |            0 |            0 |            0 |            0 |            0 |            0 |            0 |            0 |            0 |            0 |            0 |            0 |            0 |            0 |            0 |            0 |            0 |            0 |            0 |            0 |            0 |            0 |            0 |            0 |            0 |            0 |            0 |            0 |            0 |            0 |            0 |            0 |            0 |            0 |
il1.invalidations                                0 |            0 |            0 |            0 |            0 |            0 |            0 |            0 |            0 |            0 |            0 |            0 |            0 |            0 |            0 |            0 |            0 |            0 |            0 |            0 |            0 |            0 |            0 |            0 |            0 |            0 |            0 |            0 |            0 |            0 |            0 |            0 |            0 |            0 |            0 |            0 |            0 |            0 |            0 |            0 |            0 |            0 |            0 |            0 |
il1.miss_rate                               0.0005 |       0.0005 |       0.0004 |       0.0004 |       0.0003 |       0.0003 |       0.0002 |       0.0002 |       0.0001 |       0.0001 |       0.0001 |       0.0001 |       0.0001 |       0.0001 |       0.0000 |       0.0000 |       0.0000 |       0.0000 |       0.0000 |       0.0000 |       0.0000 |       0.0000 |       0.0000 |       0.0000 |       0.0000 |       0.0000 |       0.0000 |       0.0000 |       0.0000 |       0.0000 |       0.0000 |       0.0000 |       0.0000 |       0.0000 |       0.0000 |       0.0000 |       0.0000 |       0.0000 |       0.0000 |       0.0000 |       0.0000 |       0.0000 |       0.0000 |       0.0000 |
il1.repl_rate                               0.0003 |       0.0003 |       0.0002 |       0.0002 |       0.0002 |       0.0002 |       0.0001 |       0.0001 |       0.0001 |       0.0001 |       0.0000 |       0.0000 |       0.0000 |       0.0000 |       0.0000 |       0.0000 |       0.0000 |       0.0000 |       0.0000 |       0.0000 |       0.0000 |       0.0000 |       0.0000 |       0.0000 |       0.0000 |       0.0000 |       0.0000 |       0.0000 |       0.0000 |       0.0000 |       0.0000 |       0.0000 |       0.0000 |       0.0000 |       0.0000 |       0.0000 |       0.0000 |       0.0000 |       0.0000 |       0.0000 |       0.0000 |       0.0000 |       0.0000 |       0.0000 |
il1.wb_rate                                 0.0000 |       0.0000 |       0.0000 |       0.0000 |       0.0000 |       0.0000 |       0.0000 |       0.0000 |       0.0000 |       0.0000 |       0.0000 |       0.0000 |       0.0000 |       0.0000 |       0.0000 |       0.0000 |       0.0000 |       0.0000 |       0.0000 |       0.0000 |       0.0000 |       0.0000 |       0.0000 |       0.0000 |       0.0000 |       0.0000 |       0.0000 |       0.0000 |       0.0000 |       0.0000 |       0.0000 |       0.0000 |       0.0000 |       0.0000 |       0.0000 |       0.0000 |       0.0000 |       0.0000 |       0.0000 |       0.0000 |       0.0000 |       0.0000 |       0.0000 |       0.0000 |
il1.inv_rate                                0.0000 |       0.0000 |       0.0000 |       0.0000 |       0.0000 |       0.0000 |       0.0000 |       0.0000 |       0.0000 |       0.0000 |       0.0000 |       0.0000 |       0.0000 |       0.0000 |       0.0000 |       0.0000 |       0.0000 |       0.0000 |       0.0000 |       0.0000 |       0.0000 |       0.0000 |       0.0000 |       0.0000 |       0.0000 |       0.0000 |       0.0000 |       0.0000 |       0.0000 |       0.0000 |       0.0000 |       0.0000 |       0.0000 |       0.0000 |       0.0000 |       0.0000 |       0.0000 |       0.0000 |       0.0000 |       0.0000 |       0.0000 |       0.0000 |       0.0000 |       0.0000 |
dl1.accesses                                296485 |       296485 |       296485 |       296485 |       633825 |       633825 |       633825 |       633825 |      1359580 |      1359580 |      1359580 |      1359580 |      2865361 |      2865361 |      2865361 |      2865361 |      6081455 |      6081455 |      6081455 |      6081455 |     12947869 |     12947869 |     12947869 |     12947869 |     27091263 |     27091263 |     27091263 |     27091263 |     57030908 |     57030908 |     57030908 |     57030908 |    120339250 |    120339250 |    120339250 |    120339250 |    250258365 |    250258365 |    250258365 |    250258365 |    523337941 |    523337941 |    523337941 |    523337941 |
dl1.hits                                    291925 |       291925 |       292511 |       292511 |       621930 |       621930 |       623507 |       623507 |      1330242 |      1330242 |      1333048 |      1333048 |      2792487 |      2792487 |      2799922 |      2799922 |      5908100 |      5908100 |      5924321 |      5924321 |     12550612 |     12550612 |     12582072 |     12582072 |     26185960 |     26185960 |     26257770 |     26257770 |     55010661 |     55010661 |     55160883 |     55160883 |    115900475 |    115900475 |    116206525 |    116206525 |    240540135 |    240540135 |    241193746 |    241193746 |    502290989 |    502290989 |    503648751 |    503648751 |
dl1.misses                                    4560 |         4560 |         3974 |         3974 |        11895 |        11895 |        10318 |        10318 |        29338 |        29338 |        26532 |        26532 |        72874 |        72874 |        65439 |        65439 |       173355 |       173355 |       157134 |       157134 |       397257 |       397257 |       365797 |       365797 |       905303 |       905303 |       833493 |       833493 |      2020247 |      2020247 |      1870025 |      1870025 |      4438775 |      4438775 |      4132725 |      4132725 |      9718230 |      9718230 |      9064619 |      9064619 |     21046952 |     21046952 |     19689190 |     19689190 |
dl1.replacements                              4304 |         4304 |         3718 |         3718 |        11639 |        11639 |        10062 |        10062 |        29082 |        29082 |        26276 |        26276 |        72618 |        72618 |        65183 |        65183 |       173099 |       173099 |       156878 |       156878 |       397001 |       397001 |       365541 |       365541 |       905047 |       905047 |       833237 |       833237 |      2019991 |      2019991 |      1869769 |      1869769 |      4438519 |      4438519 |      4132469 |      4132469 |      9717974 |      9717974 |      9064363 |      9064363 |     21046696 |     21046696 |     19688934 |     19688934 |
dl1.writebacks                                3668 |         3668 |         3153 |         3153 |        10254 |        10254 |         8829 |         8829 |        26134 |        26134 |        23644 |        23644 |        66389 |        66389 |        59678 |        59678 |       160109 |       160109 |       145628 |       145628 |       370330 |       370330 |       342682 |       342682 |       850292 |       850292 |       786953 |       786953 |      1908639 |      1908639 |      1777107 |      1777107 |      4211223 |      4211223 |      3946512 |      3946512 |      9259247 |      9259247 |      8691702 |      8691702 |     20117530 |     20117530 |     18943745 |     18943745 |
dl1.invalidations                                0 |            0 |            0 |            0 |            0 |            0 |            0 |            0 |            0 |            0 |            0 |            0 |            0 |            0 |            0 |            0 |            0 |            0 |            0 |            0 |            0 |            0 |            0 |            0 |            0 |            0 |            0 |            0 |            0 |            0 |            0 |            0 |            0 |            0 |            0 |            0 |            0 |            0 |            0 |            0 |            0 |            0 |            0 |            0 |
dl1.miss_rate                               0.0154 |       0.0154 |       0.0134 |       0.0134 |       0.0188 |       0.0188 |       0.0163 |       0.0163 |       0.0216 |       0.0216 |       0.0195 |       0.0195 |       0.0254 |       0.0254 |       0.0228 |       0.0228 |       0.0285 |       0.0285 |       0.0258 |       0.0258 |       0.0307 |       0.0307 |       0.0283 |       0.0283 |       0.0334 |       0.0334 |       0.0308 |       0.0308 |       0.0354 |       0.0354 |       0.0328 |       0.0328 |       0.0369 |       0.0369 |       0.0343 |       0.0343 |       0.0388 |       0.0388 |       0.0362 |       0.0362 |       0.0402 |       0.0402 |       0.0376 |       0.0376 |
dl1.repl_rate                               0.0145 |       0.0145 |       0.0125 |       0.0125 |       0.0184 |       0.0184 |       0.0159 |       0.0159 |       0.0214 |       0.0214 |       0.0193 |       0.0193 |       0.0253 |       0.0253 |       0.0227 |       0.0227 |       0.0285 |       0.0285 |       0.0258 |       0.0258 |       0.0307 |       0.0307 |       0.0282 |       0.0282 |       0.0334 |       0.0334 |       0.0308 |       0.0308 |       0.0354 |       0.0354 |       0.0328 |       0.0328 |       0.0369 |       0.0369 |       0.0343 |       0.0343 |       0.0388 |       0.0388 |       0.0362 |       0.0362 |       0.0402 |       0.0402 |       0.0376 |       0.0376 |
dl1.wb_rate                                 0.0124 |       0.0124 |       0.0106 |       0.0106 |       0.0162 |       0.0162 |       0.0139 |       0.0139 |       0.0192 |       0.0192 |       0.0174 |       0.0174 |       0.0232 |       0.0232 |       0.0208 |       0.0208 |       0.0263 |       0.0263 |       0.0239 |       0.0239 |       0.0286 |       0.0286 |       0.0265 |       0.0265 |       0.0314 |       0.0314 |       0.0290 |       0.0290 |       0.0335 |       0.0335 |       0.0312 |       0.0312 |       0.0350 |       0.0350 |       0.0328 |       0.0328 |       0.0370 |       0.0370 |       0.0347 |       0.0347 |       0.0384 |       0.0384 |       0.0362 |       0.0362 |
dl1.inv_rate                                0.0000 |       0.0000 |       0.0000 |       0.0000 |       0.0000 |       0.0000 |       0.0000 |       0.0000 |       0.0000 |       0.0000 |       0.0000 |       0.0000 |       0.0000 |       0.0000 |       0.0000 |       0.0000 |       0.0000 |       0.0000 |       0.0000 |       0.0000 |       0.0000 |       0.0000 |       0.0000 |       0.0000 |       0.0000 |       0.0000 |       0.0000 |       0.0000 |       0.0000 |       0.0000 |       0.0000 |       0.0000 |       0.0000 |       0.0000 |       0.0000 |       0.0000 |       0.0000 |       0.0000 |       0.0000 |       0.0000 |       0.0000 |       0.0000 |       0.0000 |       0.0000 |
dl2.accesses                                  8756 |         8756 |         7567 |         7567 |        22717 |        22717 |        19606 |        19606 |        56041 |        56041 |        50631 |        50631 |       139830 |       139830 |       125577 |       125577 |       334031 |       334031 |       303222 |       303222 |       768154 |       768154 |       708938 |       708938 |      1756162 |      1756162 |      1620905 |      1620905 |      3929453 |      3929453 |      3647591 |      3647591 |      8650601 |      8650601 |      8079730 |      8079730 |     18978080 |     18978080 |     17756814 |     17756814 |     41165085 |     41165085 |     38633428 |     38633428 |
dl2.hits                                      6843 |         6843 |         5699 |         5699 |        19778 |        19778 |        16723 |        16723 |        51052 |        51052 |        45703 |        45703 |       130738 |       130738 |       116549 |       116549 |       316747 |       316747 |       286002 |       286002 |       734483 |       734483 |       675335 |       675335 |      1689725 |      1687214 |      1554534 |      1530941 |      3794971 |      3573311 |      3473339 |      3322815 |      7936312 |      7664732 |      7430078 |      7177898 |     17004909 |     16246241 |     15954173 |     15242901 |     35700227 |     34178061 |     33601944 |     31970458 |
dl2.misses                                    1913 |         1913 |         1868 |         1868 |         2939 |         2939 |         2883 |         2883 |         4989 |         4989 |         4928 |         4928 |         9092 |         9092 |         9028 |         9028 |        17284 |        17284 |        17220 |        17220 |        33671 |        33671 |        33603 |        33603 |        66437 |        68948 |        66371 |        89964 |       134482 |       356142 |       174252 |       324776 |       714289 |       985869 |       649652 |       901832 |      1973171 |      2731839 |      1802641 |      2513913 |      5464858 |      6987024 |      5031484 |      6662970 |
dl2.replacements                               273 |          273 |            0 |            0 |          270 |          270 |            0 |            0 |          296 |          296 |            0 |            0 |          302 |          302 |            0 |            0 |          302 |          302 |            0 |            0 |          306 |          306 |            0 |            0 |          304 |         4490 |            0 |        24428 |         4488 |       290606 |        43180 |       259240 |       583217 |       920333 |       518580 |       836296 |      1842099 |      2666303 |      1671569 |      2448377 |      5333786 |      6921488 |      4900412 |      6597434 |
dl2.writebacks                                 150 |          150 |            0 |            0 |          145 |          145 |            0 |            0 |          165 |          165 |            0 |            0 |          170 |          170 |            0 |            0 |          170 |          170 |            0 |            0 |          170 |          170 |            0 |            0 |          170 |         4356 |            0 |        23689 |         4356 |       227000 |        42441 |       192956 |       455228 |       779784 |       386157 |       694108 |      1561218 |      2357042 |      1387363 |      2135082 |      4715486 |      6252468 |      4273887 |      5924324 |
dl2.invalidations                                0 |            0 |            0 |            0 |            0 |            0 |            0 |            0 |            0 |            0 |            0 |            0 |            0 |            0 |            0 |            0 |            0 |            0 |            0 |            0 |            0 |            0 |            0 |            0 |            0 |            0 |            0 |            0 |            0 |            0 |            0 |            0 |            0 |            0 |            0 |            0 |            0 |            0 |            0 |            0 |            0 |            0 |            0 |            0 |
dl2.miss_rate                               0.2185 |       0.2185 |       0.2469 |       0.2469 |       0.1294 |       0.1294 |       0.1470 |       0.1470 |       0.0890 |       0.0890 |       0.0973 |       0.0973 |       0.0650 |       0.0650 |       0.0719 |       0.0719 |       0.0517 |       0.0517 |       0.0568 |       0.0568 |       0.0438 |       0.0438 |       0.0474 |       0.0474 |       0.0378 |       0.0393 |       0.0409 |       0.0555 |       0.0342 |       0.0906 |       0.0478 |       0.0890 |       0.0826 |       0.1140 |       0.0804 |       0.1116 |       0.1040 |       0.1439 |       0.1015 |       0.1416 |       0.1328 |       0.1697 |       0.1302 |       0.1725 |
dl2.repl_rate                               0.0312 |       0.0312 |       0.0000 |       0.0000 |       0.0119 |       0.0119 |       0.0000 |       0.0000 |       0.0053 |       0.0053 |       0.0000 |       0.0000 |       0.0022 |       0.0022 |       0.0000 |       0.0000 |       0.0009 |       0.0009 |       0.0000 |       0.0000 |       0.0004 |       0.0004 |       0.0000 |       0.0000 |       0.0002 |       0.0026 |       0.0000 |       0.0151 |       0.0011 |       0.0740 |       0.0118 |       0.0711 |       0.0674 |       0.1064 |       0.0642 |       0.1035 |       0.0971 |       0.1405 |       0.0941 |       0.1379 |       0.1296 |       0.1681 |       0.1268 |       0.1708 |
dl2.wb_rate                                 0.0171 |       0.0171 |       0.0000 |       0.0000 |       0.0064 |       0.0064 |       0.0000 |       0.0000 |       0.0029 |       0.0029 |       0.0000 |       0.0000 |       0.0012 |       0.0012 |       0.0000 |       0.0000 |       0.0005 |       0.0005 |       0.0000 |       0.0000 |       0.0002 |       0.0002 |       0.0000 |       0.0000 |       0.0001 |       0.0025 |       0.0000 |       0.0146 |       0.0011 |       0.0578 |       0.0116 |       0.0529 |       0.0526 |       0.0901 |       0.0478 |       0.0859 |       0.0823 |       0.1242 |       0.0781 |       0.1202 |       0.1146 |       0.1519 |       0.1106 |       0.1533 |
dl2.inv_rate                                0.0000 |       0.0000 |       0.0000 |       0.0000 |       0.0000 |       0.0000 |       0.0000 |       0.0000 |       0.0000 |       0.0000 |       0.0000 |       0.0000 |       0.0000 |       0.0000 |       0.0000 |       0.0000 |       0.0000 |       0.0000 |       0.0000 |       0.0000 |       0.0000 |       0.0000 |       0.0000 |       0.0000 |       0.0000 |       0.0000 |       0.0000 |       0.0000 |       0.0000 |       0.0000 |       0.0000 |       0.0000 |       0.0000 |       0.0000 |       0.0000 |       0.0000 |       0.0000 |       0.0000 |       0.0000 |       0.0000 |       0.0000 |       0.0000 |       0.0000 |       0.0000 |
itlb.accesses                              1018076 |      1018076 |      1018076 |      1018076 |      2191704 |      2191704 |      2191704 |      2191704 |      4725921 |      4725921 |      4725921 |      4725921 |     10005194 |     10005194 |     10005194 |     10005194 |     21293448 |     21293448 |     21293448 |     21293448 |     45461473 |     45461473 |     45461473 |     45461473 |     95388966 |     95388966 |     95388966 |     95388966 |    201137507 |    201137507 |    201137507 |    201137507 |    425221265 |    425221265 |    425221265 |    425221265 |    886161618 |    886161618 |    886161618 |    886161618 |   1855315003 |   1855315003 |   1855315003 |   1855315003 |
itlb.hits                                  1018066 |      1018066 |      1018066 |      1018066 |      2191694 |      2191694 |      2191694 |      2191694 |      4725911 |      4725911 |      4725911 |      4725911 |     10005184 |     10005184 |     10005184 |     10005184 |     21293438 |     21293438 |     21293438 |     21293438 |     45461463 |     45461463 |     45461463 |     45461463 |     95388956 |     95388956 |     95388956 |     95388956 |    201137497 |    201137497 |    201137497 |    201137497 |    425221255 |    425221255 |    425221255 |    425221255 |    886161608 |    886161608 |    886161608 |    886161608 |   1855314993 |   1855314993 |   1855314993 |   1855314993 |
itlb.misses                                     10 |           10 |           10 |           10 |           10 |           10 |           10 |           10 |           10 |           10 |           10 |           10 |           10 |           10 |           10 |           10 |           10 |           10 |           10 |           10 |           10 |           10 |           10 |           10 |           10 |           10 |           10 |           10 |           10 |           10 |           10 |           10 |           10 |           10 |           10 |           10 |           10 |           10 |           10 |           10 |           10 |           10 |           10 |           10 |
itlb.replacements                                0 |            0 |            0 |            0 |            0 |            0 |            0 |            0 |            0 |            0 |            0 |            0 |            0 |            0 |            0 |            0 |            0 |            0 |            0 |            0 |            0 |            0 |            0 |            0 |            0 |            0 |            0 |            0 |            0 |            0 |            0 |            0 |            0 |            0 |            0 |            0 |            0 |            0 |            0 |            0 |            0 |            0 |            0 |            0 |
itlb.writebacks                                  0 |            0 |            0 |            0 |            0 |            0 |            0 |            0 |            0 |            0 |            0 |            0 |            0 |            0 |            0 |            0 |            0 |            0 |            0 |            0 |            0 |            0 |            0 |            0 |            0 |            0 |            0 |            0 |            0 |            0 |            0 |            0 |            0 |            0 |            0 |            0 |            0 |            0 |            0 |            0 |            0 |            0 |            0 |            0 |
itlb.invalidations                               0 |            0 |            0 |            0 |            0 |            0 |            0 |            0 |            0 |            0 |            0 |            0 |            0 |            0 |            0 |            0 |            0 |            0 |            0 |            0 |            0 |            0 |            0 |            0 |            0 |            0 |            0 |            0 |            0 |            0 |            0 |            0 |            0 |            0 |            0 |            0 |            0 |            0 |            0 |            0 |            0 |            0 |            0 |            0 |
itlb.miss_rate                              0.0000 |       0.0000 |       0.0000 |       0.0000 |       0.0000 |       0.0000 |       0.0000 |       0.0000 |       0.0000 |       0.0000 |       0.0000 |       0.0000 |       0.0000 |       0.0000 |       0.0000 |       0.0000 |       0.0000 |       0.0000 |       0.0000 |       0.0000 |       0.0000 |       0.0000 |       0.0000 |       0.0000 |       0.0000 |       0.0000 |       0.0000 |       0.0000 |       0.0000 |       0.0000 |       0.0000 |       0.0000 |       0.0000 |       0.0000 |       0.0000 |       0.0000 |       0.0000 |       0.0000 |       0.0000 |       0.0000 |       0.0000 |       0.0000 |       0.0000 |       0.0000 |
itlb.repl_rate                              0.0000 |       0.0000 |       0.0000 |       0.0000 |       0.0000 |       0.0000 |       0.0000 |       0.0000 |       0.0000 |       0.0000 |       0.0000 |       0.0000 |       0.0000 |       0.0000 |       0.0000 |       0.0000 |       0.0000 |       0.0000 |       0.0000 |       0.0000 |       0.0000 |       0.0000 |       0.0000 |       0.0000 |       0.0000 |       0.0000 |       0.0000 |       0.0000 |       0.0000 |       0.0000 |       0.0000 |       0.0000 |       0.0000 |       0.0000 |       0.0000 |       0.0000 |       0.0000 |       0.0000 |       0.0000 |       0.0000 |       0.0000 |       0.0000 |       0.0000 |       0.0000 |
itlb.wb_rate                                0.0000 |       0.0000 |       0.0000 |       0.0000 |       0.0000 |       0.0000 |       0.0000 |       0.0000 |       0.0000 |       0.0000 |       0.0000 |       0.0000 |       0.0000 |       0.0000 |       0.0000 |       0.0000 |       0.0000 |       0.0000 |       0.0000 |       0.0000 |       0.0000 |       0.0000 |       0.0000 |       0.0000 |       0.0000 |       0.0000 |       0.0000 |       0.0000 |       0.0000 |       0.0000 |       0.0000 |       0.0000 |       0.0000 |       0.0000 |       0.0000 |       0.0000 |       0.0000 |       0.0000 |       0.0000 |       0.0000 |       0.0000 |       0.0000 |       0.0000 |       0.0000 |
itlb.inv_rate                               0.0000 |       0.0000 |       0.0000 |       0.0000 |       0.0000 |       0.0000 |       0.0000 |       0.0000 |       0.0000 |       0.0000 |       0.0000 |       0.0000 |       0.0000 |       0.0000 |       0.0000 |       0.0000 |       0.0000 |       0.0000 |       0.0000 |       0.0000 |       0.0000 |       0.0000 |       0.0000 |       0.0000 |       0.0000 |       0.0000 |       0.0000 |       0.0000 |       0.0000 |       0.0000 |       0.0000 |       0.0000 |       0.0000 |       0.0000 |       0.0000 |       0.0000 |       0.0000 |       0.0000 |       0.0000 |       0.0000 |       0.0000 |       0.0000 |       0.0000 |       0.0000 |
dtlb.accesses                               296485 |       296485 |       296485 |       296485 |       633825 |       633825 |       633825 |       633825 |      1359580 |      1359580 |      1359580 |      1359580 |      2865361 |      2865361 |      2865361 |      2865361 |      6081455 |      6081455 |      6081455 |      6081455 |     12947869 |     12947869 |     12947869 |     12947869 |     27091263 |     27091263 |     27091263 |     27091263 |     57030908 |     57030908 |     57030908 |     57030908 |    120339250 |    120339250 |    120339250 |    120339250 |    250258365 |    250258365 |    250258365 |    250258365 |    523337941 |    523337941 |    523337941 |    523337941 |
dtlb.hits                                   296469 |       296469 |       296469 |       296469 |       633801 |       633801 |       633801 |       633801 |      1359540 |      1359540 |      1359540 |      1359540 |      2865289 |      2865289 |      2865289 |      2865289 |      6081308 |      6081308 |      6081308 |      6081308 |     12947073 |     12947073 |     12947073 |     12947073 |     27045479 |     27045479 |     27045479 |     27045479 |     56773356 |     56773356 |     56773356 |     56773356 |    119416051 |    119416051 |    119416051 |    119416051 |    247567962 |    247567962 |    247567962 |    247567962 |    516233726 |    516233726 |    516233726 |    516233726 |
dtlb.misses                                     16 |           16 |           16 |           16 |           24 |           24 |           24 |           24 |           40 |           40 |           40 |           40 |           72 |           72 |           72 |           72 |          147 |          147 |          147 |          147 |          796 |          796 |          796 |          796 |        45784 |        45784 |        45784 |        45784 |       257552 |       257552 |       257552 |       257552 |       923199 |       923199 |       923199 |       923199 |      2690403 |      2690403 |      2690403 |      2690403 |      7104215 |      7104215 |      7104215 |      7104215 |
dtlb.replacements                                0 |            0 |            0 |            0 |            0 |            0 |            0 |            0 |            0 |            0 |            0 |            0 |            0 |            0 |            0 |            0 |           19 |           19 |           19 |           19 |          668 |          668 |          668 |          668 |        45656 |        45656 |        45656 |        45656 |       257424 |       257424 |       257424 |       257424 |       923071 |       923071 |       923071 |       923071 |      2690275 |      2690275 |      2690275 |      2690275 |      7104087 |      7104087 |      7104087 |      7104087 |
dtlb.writebacks                                  0 |            0 |            0 |            0 |            0 |            0 |            0 |            0 |            0 |            0 |            0 |            0 |            0 |            0 |            0 |            0 |           16 |           16 |           16 |           16 |          545 |          545 |          545 |          545 |        44205 |        44205 |        44205 |        44205 |       247978 |       247978 |       247978 |       247978 |       890771 |       890771 |       890771 |       890771 |      2606733 |      2606733 |      2606733 |      2606733 |      6912323 |      6912323 |      6912323 |      6912323 |
dtlb.invalidations                               0 |            0 |            0 |            0 |            0 |            0 |            0 |            0 |            0 |            0 |            0 |            0 |            0 |            0 |            0 |            0 |            0 |            0 |            0 |            0 |            0 |            0 |            0 |            0 |            0 |            0 |            0 |            0 |            0 |            0 |            0 |            0 |            0 |            0 |            0 |            0 |            0 |            0 |            0 |            0 |            0 |            0 |            0 |            0 |
dtlb.miss_rate                              0.0001 |       0.0001 |       0.0001 |       0.0001 |       0.0000 |       0.0000 |       0.0000 |       0.0000 |       0.0000 |       0.0000 |       0.0000 |       0.0000 |       0.0000 |       0.0000 |       0.0000 |       0.0000 |       0.0000 |       0.0000 |       0.0000 |       0.0000 |       0.0001 |       0.0001 |       0.0001 |       0.0001 |       0.0017 |       0.0017 |       0.0017 |       0.0017 |       0.0045 |       0.0045 |       0.0045 |       0.0045 |       0.0077 |       0.0077 |       0.0077 |       0.0077 |       0.0108 |       0.0108 |       0.0108 |       0.0108 |       0.0136 |       0.0136 |       0.0136 |       0.0136 |
dtlb.repl_rate                              0.0000 |       0.0000 |       0.0000 |       0.0000 |       0.0000 |       0.0000 |       0.0000 |       0.0000 |       0.0000 |       0.0000 |       0.0000 |       0.0000 |       0.0000 |       0.0000 |       0.0000 |       0.0000 |       0.0000 |       0.0000 |       0.0000 |       0.0000 |       0.0001 |       0.0001 |       0.0001 |       0.0001 |       0.0017 |       0.0017 |       0.0017 |       0.0017 |       0.0045 |       0.0045 |       0.0045 |       0.0045 |       0.0077 |       0.0077 |       0.0077 |       0.0077 |       0.0107 |       0.0107 |       0.0107 |       0.0107 |       0.0136 |       0.0136 |       0.0136 |       0.0136 |
dtlb.wb_rate                                0.0000 |       0.0000 |       0.0000 |       0.0000 |       0.0000 |       0.0000 |       0.0000 |       0.0000 |       0.0000 |       0.0000 |       0.0000 |       0.0000 |       0.0000 |       0.0000 |       0.0000 |       0.0000 |       0.0000 |       0.0000 |       0.0000 |       0.0000 |       0.0000 |       0.0000 |       0.0000 |       0.0000 |       0.0016 |       0.0016 |       0.0016 |       0.0016 |       0.0043 |       0.0043 |       0.0043 |       0.0043 |       0.0074 |       0.0074 |       0.0074 |       0.0074 |       0.0104 |       0.0104 |       0.0104 |       0.0104 |       0.0132 |       0.0132 |       0.0132 |       0.0132 |
dtlb.inv_rate                               0.0000 |       0.0000 |       0.0000 |       0.0000 |       0.0000 |       0.0000 |       0.0000 |       0.0000 |       0.0000 |       0.0000 |       0.0000 |       0.0000 |       0.0000 |       0.0000 |       0.0000 |       0.0000 |       0.0000 |       0.0000 |       0.0000 |       0.0000 |       0.0000 |       0.0000 |       0.0000 |       0.0000 |       0.0000 |       0.0000 |       0.0000 |       0.0000 |       0.0000 |       0.0000 |       0.0000 |       0.0000 |       0.0000 |       0.0000 |       0.0000 |       0.0000 |       0.0000 |       0.0000 |       0.0000 |       0.0000 |       0.0000 |       0.0000 |       0.0000 |       0.0000 |
ld_text_base                            0x00400000 |   0x00400000 |   0x00400000 |   0x00400000 |   0x00400000 |   0x00400000 |   0x00400000 |   0x00400000 |   0x00400000 |   0x00400000 |   0x00400000 |   0x00400000 |   0x00400000 |   0x00400000 |   0x00400000 |   0x00400000 |   0x00400000 |   0x00400000 |   0x00400000 |   0x00400000 |   0x00400000 |   0x00400000 |   0x00400000 |   0x00400000 |   0x00400000 |   0x00400000 |   0x00400000 |   0x00400000 |   0x00400000 |   0x00400000 |   0x00400000 |   0x00400000 |   0x00400000 |   0x00400000 |   0x00400000 |   0x00400000 |   0x00400000 |   0x00400000 |   0x00400000 |   0x00400000 |   0x00400000 |   0x00400000 |   0x00400000 |   0x00400000 |
ld_text_size                                 74528 |        74528 |        74528 |        74528 |        74560 |        74560 |        74560 |        74560 |        74576 |        74576 |        74576 |        74576 |        74592 |        74592 |        74592 |        74592 |        74592 |        74592 |        74592 |        74592 |        74592 |        74592 |        74592 |        74592 |        74592 |        74592 |        74592 |        74592 |        74592 |        74592 |        74592 |        74592 |        74592 |        74592 |        74592 |        74592 |        74592 |        74592 |        74592 |        74592 |        74592 |        74592 |        74592 |        74592 |
ld_data_base                            0x10000000 |   0x10000000 |   0x10000000 |   0x10000000 |   0x10000000 |   0x10000000 |   0x10000000 |   0x10000000 |   0x10000000 |   0x10000000 |   0x10000000 |   0x10000000 |   0x10000000 |   0x10000000 |   0x10000000 |   0x10000000 |   0x10000000 |   0x10000000 |   0x10000000 |   0x10000000 |   0x10000000 |   0x10000000 |   0x10000000 |   0x10000000 |   0x10000000 |   0x10000000 |   0x10000000 |   0x10000000 |   0x10000000 |   0x10000000 |   0x10000000 |   0x10000000 |   0x10000000 |   0x10000000 |   0x10000000 |   0x10000000 |   0x10000000 |   0x10000000 |   0x10000000 |   0x10000000 |   0x10000000 |   0x10000000 |   0x10000000 |   0x10000000 |
ld_data_size                                  8192 |         8192 |         8192 |         8192 |         8192 |         8192 |         8192 |         8192 |         8192 |         8192 |         8192 |         8192 |         8192 |         8192 |         8192 |         8192 |         8192 |         8192 |         8192 |         8192 |         8192 |         8192 |         8192 |         8192 |         8192 |         8192 |         8192 |         8192 |         8192 |         8192 |         8192 |         8192 |         8192 |         8192 |         8192 |         8192 |         8192 |         8192 |         8192 |         8192 |         8192 |         8192 |         8192 |         8192 |
ld_stack_base                           0x7fffc000 |   0x7fffc000 |   0x7fffc000 |   0x7fffc000 |   0x7fffc000 |   0x7fffc000 |   0x7fffc000 |   0x7fffc000 |   0x7fffc000 |   0x7fffc000 |   0x7fffc000 |   0x7fffc000 |   0x7fffc000 |   0x7fffc000 |   0x7fffc000 |   0x7fffc000 |   0x7fffc000 |   0x7fffc000 |   0x7fffc000 |   0x7fffc000 |   0x7fffc000 |   0x7fffc000 |   0x7fffc000 |   0x7fffc000 |   0x7fffc000 |   0x7fffc000 |   0x7fffc000 |   0x7fffc000 |   0x7fffc000 |   0x7fffc000 |   0x7fffc000 |   0x7fffc000 |   0x7fffc000 |   0x7fffc000 |   0x7fffc000 |   0x7fffc000 |   0x7fffc000 |   0x7fffc000 |   0x7fffc000 |   0x7fffc000 |   0x7fffc000 |   0x7fffc000 |   0x7fffc000 |   0x7fffc000 |
ld_stack_size                                16384 |        16384 |        16384 |        16384 |        16384 |        16384 |        16384 |        16384 |        16384 |        16384 |        16384 |        16384 |        16384 |        16384 |        16384 |        16384 |        16384 |        16384 |        16384 |        16384 |        16384 |        16384 |        16384 |        16384 |        16384 |        16384 |        16384 |        16384 |        16384 |        16384 |        16384 |        16384 |        16384 |        16384 |        16384 |        16384 |        16384 |        16384 |        16384 |        16384 |        16384 |        16384 |        16384 |        16384 |
ld_prog_entry                           0x00400140 |   0x00400140 |   0x00400140 |   0x00400140 |   0x00400140 |   0x00400140 |   0x00400140 |   0x00400140 |   0x00400140 |   0x00400140 |   0x00400140 |   0x00400140 |   0x00400140 |   0x00400140 |   0x00400140 |   0x00400140 |   0x00400140 |   0x00400140 |   0x00400140 |   0x00400140 |   0x00400140 |   0x00400140 |   0x00400140 |   0x00400140 |   0x00400140 |   0x00400140 |   0x00400140 |   0x00400140 |   0x00400140 |   0x00400140 |   0x00400140 |   0x00400140 |   0x00400140 |   0x00400140 |   0x00400140 |   0x00400140 |   0x00400140 |   0x00400140 |   0x00400140 |   0x00400140 |   0x00400140 |   0x00400140 |   0x00400140 |   0x00400140 |
ld_environ_base                         0x7fff8000 |   0x7fff8000 |   0x7fff8000 |   0x7fff8000 |   0x7fff8000 |   0x7fff8000 |   0x7fff8000 |   0x7fff8000 |   0x7fff8000 |   0x7fff8000 |   0x7fff8000 |   0x7fff8000 |   0x7fff8000 |   0x7fff8000 |   0x7fff8000 |   0x7fff8000 |   0x7fff8000 |   0x7fff8000 |   0x7fff8000 |   0x7fff8000 |   0x7fff8000 |   0x7fff8000 |   0x7fff8000 |   0x7fff8000 |   0x7fff8000 |   0x7fff8000 |   0x7fff8000 |   0x7fff8000 |   0x7fff8000 |   0x7fff8000 |   0x7fff8000 |   0x7fff8000 |   0x7fff8000 |   0x7fff8000 |   0x7fff8000 |   0x7fff8000 |   0x7fff8000 |   0x7fff8000 |   0x7fff8000 |   0x7fff8000 |   0x7fff8000 |   0x7fff8000 |   0x7fff8000 |   0x7fff8000 |
ld_target_big_endian                             0 |            0 |            0 |            0 |            0 |            0 |            0 |            0 |            0 |            0 |            0 |            0 |            0 |            0 |            0 |            0 |            0 |            0 |            0 |            0 |            0 |            0 |            0 |            0 |            0 |            0 |            0 |            0 |            0 |            0 |            0 |            0 |            0 |            0 |            0 |            0 |            0 |            0 |            0 |            0 |            0 |            0 |            0 |            0 |
mem.page_count                                  35 |           35 |           35 |           35 |           43 |           43 |           43 |           43 |           59 |           59 |           59 |           59 |           91 |           91 |           91 |           91 |          155 |          155 |          155 |          155 |          283 |          283 |          283 |          283 |          539 |          539 |          539 |          539 |         1051 |         1051 |         1051 |         1051 |         2081 |         2081 |         2081 |         2081 |         4135 |         4135 |         4135 |         4135 |         8243 |         8243 |         8243 |         8243 |
mem.page_mem                                  140k |         140k |         140k |         140k |         172k |         172k |         172k |         172k |         236k |         236k |         236k |         236k |         364k |         364k |         364k |         364k |         620k |         620k |         620k |         620k |        1132k |        1132k |        1132k |        1132k |        2156k |        2156k |        2156k |        2156k |        4204k |        4204k |        4204k |        4204k |        8324k |        8324k |        8324k |        8324k |       16540k |       16540k |       16540k |       16540k |       32972k |       32972k |       32972k |       32972k |
mem.ptab_misses                                 35 |           35 |           35 |           35 |           43 |           43 |           43 |           43 |           59 |           59 |           59 |           59 |           91 |           91 |           91 |           91 |          155 |          155 |          155 |          155 |          283 |          283 |          283 |          283 |          539 |          539 |          539 |          539 |         1051 |         1051 |         1051 |         1051 |         8810 |         8810 |         8810 |         8810 |        33612 |        33612 |        33612 |        33612 |        60480 |        60480 |        60480 |        60480 |
mem.ptab_accesses                          5127020 |      5127020 |      5127020 |      5127020 |     10496404 |     10496404 |     10496404 |     10496404 |     22084878 |     22084878 |     22084878 |     22084878 |     46213628 |     46213628 |     46213628 |     46213628 |     97798832 |     97798832 |     97798832 |     97798832 |    208203760 |    208203760 |    208203760 |    208203760 |    436200520 |    436200520 |    436200520 |    436200520 |    919073974 |    919073974 |    919073974 |    919073974 |   1942025690 |   1942025690 |   1942025690 |   1942025690 |   4045625332 |   4045625332 |   4045625332 |   4045625332 |   8468398024 |   8468398024 |   8468398024 |   8468398024 |
mem.ptab_miss_rate                          0.0000 |       0.0000 |       0.0000 |       0.0000 |       0.0000 |       0.0000 |       0.0000 |       0.0000 |       0.0000 |       0.0000 |       0.0000 |       0.0000 |       0.0000 |       0.0000 |       0.0000 |       0.0000 |       0.0000 |       0.0000 |       0.0000 |       0.0000 |       0.0000 |       0.0000 |       0.0000 |       0.0000 |       0.0000 |       0.0000 |       0.0000 |       0.0000 |       0.0000 |       0.0000 |       0.0000 |       0.0000 |       0.0000 |       0.0000 |       0.0000 |       0.0000 |       0.0000 |       0.0000 |       0.0000 |       0.0000 |       0.0000 |       0.0000 |       0.0000 |       0.0000 |
-------------------------------------------------------------------------------------------------
sim-bpred                                     4096 |         4096 |         4096 |         4096 |         4096 |         4096 |         4096 |         8192 |         8192 |         8192 |         8192 |         8192 |         8192 |         8192 |        16384 |        16384 |        16384 |        16384 |        16384 |        16384 |        16384 |        32768 |        32768 |        32768 |        32768 |        32768 |        32768 |        32768 |        65536 |        65536 |        65536 |        65536 |        65536 |        65536 |        65536 |       131072 |       131072 |       131072 |       131072 |       131072 |       131072 |       131072 |       262144 |       262144 |       262144 |       262144 |       262144 |       262144 |       262144 |       524288 |       524288 |       524288 |       524288 |       524288 |       524288 |       524288 |      1048576 |      1048576 |      1048576 |      1048576 |      1048576 |      1048576 |      1048576 |      2097152 |      2097152 |      2097152 |      2097152 |      2097152 |      2097152 |      2097152 |      4194304 |      4194304 |      4194304 |      4194304 |      4194304 |      4194304 |      4194304 |
-bpred bimod -bpred:bimod 512
-bpred bimod -bpred:bimod 1024
-bpred bimod -bpred:bimod 2048
-bpred 2lev -bpred:2lev 1 512 10 1
-bpred 2lev -bpred:2lev 1 1024 10 1
-bpred 2lev -bpred:2lev 1 2048 10 1
-bpred 2lev -bpred:2lev 1 4096 10 1
-------------------------------------------------------------------------------------------------
sim_num_insn                               1018076 |      1018076 |      1018076 |      1018076 |      1018076 |      1018076 |      1018076 |      2191704 |      2191704 |      2191704 |      2191704 |      2191704 |      2191704 |      2191704 |      4725921 |      4725921 |      4725921 |      4725921 |      4725921 |      4725921 |      4725921 |     10005194 |     10005194 |     10005194 |     10005194 |     10005194 |     10005194 |     10005194 |     21293448 |     21293448 |     21293448 |     21293448 |     21293448 |     21293448 |     21293448 |     45461473 |     45461473 |     45461473 |     45461473 |     45461473 |     45461473 |     45461473 |     95388966 |     95388966 |     95388966 |     95388966 |     95388966 |     95388966 |     95388966 |    201137507 |    201137507 |    201137507 |    201137507 |    201137507 |    201137507 |    201137507 |    425221265 |    425221265 |    425221265 |    425221265 |    425221265 |    425221265 |    425221265 |    886161618 |    886161618 |    886161618 |    886161618 |    886161618 |    886161618 |    886161618 |   1855315003 |   1855315003 |   1855315003 |   1855315003 |   1855315003 |   1855315003 |   1855315003 |
sim_num_refs                                280019 |       280019 |       280019 |       280019 |       280019 |       280019 |       280019 |       600975 |       600975 |       600975 |       600975 |       600975 |       600975 |       600975 |      1293962 |      1293962 |      1293962 |      1293962 |      1293962 |      1293962 |      1293962 |      2734207 |      2734207 |      2734207 |      2734207 |      2734207 |      2734207 |      2734207 |      5819229 |      5819229 |      5819229 |      5819229 |      5819229 |      5819229 |      5819229 |     12423499 |     12423499 |     12423499 |     12423499 |     12423499 |     12423499 |     12423499 |     26042605 |     26042605 |     26042605 |     26042605 |     26042605 |     26042605 |     26042605 |     54933674 |     54933674 |     54933674 |     54933674 |     54933674 |     54933674 |     54933674 |    116144864 |    116144864 |    116144864 |    116144864 |    116144864 |    116144864 |    116144864 |    241869675 |    241869675 |    241869675 |    241869675 |    241869675 |    241869675 |    241869675 |    506560643 |    506560643 |    506560643 |    506560643 |    506560643 |    506560643 |    506560643 |
sim_elapsed_time                                 1 |            1 |            1 |            1 |            1 |            1 |            1 |            1 |            1 |            1 |            1 |            1 |            1 |            1 |            1 |            1 |            1 |            1 |            1 |            1 |            1 |            1 |            1 |            2 |            1 |            1 |            2 |            1 |            2 |            3 |            3 |            3 |            3 |            3 |            2 |            6 |            6 |            6 |            6 |            7 |            6 |            6 |           13 |           12 |           12 |           13 |           13 |           12 |           13 |           27 |           26 |           26 |           27 |           27 |           26 |           27 |           55 |           55 |           56 |           57 |           58 |           57 |           57 |          116 |          116 |          117 |          119 |          119 |          119 |          119 |          236 |          236 |          239 |          245 |          245 |          243 |          244 |
sim_inst_rate                         1018076.0000 | 1018076.0000 | 1018076.0000 | 1018076.0000 | 1018076.0000 | 1018076.0000 | 1018076.0000 | 2191704.0000 | 2191704.0000 | 2191704.0000 | 2191704.0000 | 2191704.0000 | 2191704.0000 | 2191704.0000 | 4725921.0000 | 4725921.0000 | 4725921.0000 | 4725921.0000 | 4725921.0000 | 4725921.0000 | 4725921.0000 |10005194.0000 |10005194.0000 | 5002597.0000 |10005194.0000 |10005194.0000 | 5002597.0000 |10005194.0000 |10646724.0000 | 7097816.0000 | 7097816.0000 | 7097816.0000 | 7097816.0000 | 7097816.0000 |10646724.0000 | 7576912.1667 | 7576912.1667 | 7576912.1667 | 7576912.1667 | 6494496.1429 | 7576912.1667 | 7576912.1667 | 7337612.7692 | 7949080.5000 | 7949080.5000 | 7337612.7692 | 7337612.7692 | 7949080.5000 | 7337612.7692 | 7449537.2963 | 7736057.9615 | 7736057.9615 | 7449537.2963 | 7449537.2963 | 7736057.9615 | 7449537.2963 | 7731295.7273 | 7731295.7273 | 7593236.8750 | 7460022.1930 | 7331401.1207 | 7460022.1930 | 7460022.1930 | 7639324.2931 | 7639324.2931 | 7574030.9231 | 7446736.2857 | 7446736.2857 | 7446736.2857 | 7446736.2857 | 7861504.2500 | 7861504.2500 | 7762824.2803 | 7572714.2980 | 7572714.2980 | 7635041.1646 | 7603750.0123 |
sim_num_branches                            171990 |       171990 |       171990 |       171990 |       171990 |       171990 |       171990 |       371233 |       371233 |       371233 |       371233 |       371233 |       371233 |       371233 |       801308 |       801308 |       801308 |       801308 |       801308 |       801308 |       801308 |      1695395 |      1695395 |      1695395 |      1695395 |      1695395 |      1695395 |      1695395 |      3611567 |      3611567 |      3611567 |      3611567 |      3611567 |      3611567 |      3611567 |      7715609 |      7715609 |      7715609 |      7715609 |      7715609 |      7715609 |      7715609 |     16179939 |     16179939 |     16179939 |     16179939 |     16179939 |     16179939 |     16179939 |     34142273 |     34142273 |     34142273 |     34142273 |     34142273 |     34142273 |     34142273 |     72203808 |     72203808 |     72203808 |     72203808 |     72203808 |     72203808 |     72203808 |    150396295 |    150396295 |    150396295 |    150396295 |    150396295 |    150396295 |    150396295 |    315059874 |    315059874 |    315059874 |    315059874 |    315059874 |    315059874 |    315059874 |
sim_IPB                                     5.9194 |       5.9194 |       5.9194 |       5.9194 |       5.9194 |       5.9194 |       5.9194 |       5.9039 |       5.9039 |       5.9039 |       5.9039 |       5.9039 |       5.9039 |       5.9039 |       5.8978 |       5.8978 |       5.8978 |       5.8978 |       5.8978 |       5.8978 |       5.8978 |       5.9014 |       5.9014 |       5.9014 |       5.9014 |       5.9014 |       5.9014 |       5.9014 |       5.8959 |       5.8959 |       5.8959 |       5.8959 |       5.8959 |       5.8959 |       5.8959 |       5.8921 |       5.8921 |       5.8921 |       5.8921 |       5.8921 |       5.8921 |       5.8921 |       5.8955 |       5.8955 |       5.8955 |       5.8955 |       5.8955 |       5.8955 |       5.8955 |       5.8912 |       5.8912 |       5.8912 |       5.8912 |       5.8912 |       5.8912 |       5.8912 |       5.8892 |       5.8892 |       5.8892 |       5.8892 |       5.8892 |       5.8892 |       5.8892 |       5.8922 |       5.8922 |       5.8922 |       5.8922 |       5.8922 |       5.8922 |       5.8922 |       5.8888 |       5.8888 |       5.8888 |       5.8888 |       5.8888 |       5.8888 |       5.8888 |
bpred_bimod.lookups                         171990 |       171990 |       171990 |xxxxxxxxxxxxx |xxxxxxxxxxxxx |xxxxxxxxxxxxx |xxxxxxxxxxxxx |       371233 |       371233 |       371233 |xxxxxxxxxxxxx |xxxxxxxxxxxxx |xxxxxxxxxxxxx |xxxxxxxxxxxxx |       801308 |       801308 |       801308 |xxxxxxxxxxxxx |xxxxxxxxxxxxx |xxxxxxxxxxxxx |xxxxxxxxxxxxx |      1695395 |      1695395 |      1695395 |xxxxxxxxxxxxx |xxxxxxxxxxxxx |xxxxxxxxxxxxx |xxxxxxxxxxxxx |      3611567 |      3611567 |      3611567 |xxxxxxxxxxxxx |xxxxxxxxxxxxx |xxxxxxxxxxxxx |xxxxxxxxxxxxx |      7715609 |      7715609 |      7715609 |xxxxxxxxxxxxx |xxxxxxxxxxxxx |xxxxxxxxxxxxx |xxxxxxxxxxxxx |     16179939 |     16179939 |     16179939 |xxxxxxxxxxxxx |xxxxxxxxxxxxx |xxxxxxxxxxxxx |xxxxxxxxxxxxx |     34142273 |     34142273 |     34142273 |xxxxxxxxxxxxx |xxxxxxxxxxxxx |xxxxxxxxxxxxx |xxxxxxxxxxxxx |     72203808 |     72203808 |     72203808 |xxxxxxxxxxxxx |xxxxxxxxxxxxx |xxxxxxxxxxxxx |xxxxxxxxxxxxx |    150396295 |    150396295 |    150396295 |xxxxxxxxxxxxx |xxxxxxxxxxxxx |xxxxxxxxxxxxx |xxxxxxxxxxxxx |    315059874 |    315059874 |    315059874 |
bpred_bimod.updates                         171990 |       171990 |       171990 |xxxxxxxxxxxxx |xxxxxxxxxxxxx |xxxxxxxxxxxxx |xxxxxxxxxxxxx |       371233 |       371233 |       371233 |xxxxxxxxxxxxx |xxxxxxxxxxxxx |xxxxxxxxxxxxx |xxxxxxxxxxxxx |       801308 |       801308 |       801308 |xxxxxxxxxxxxx |xxxxxxxxxxxxx |xxxxxxxxxxxxx |xxxxxxxxxxxxx |      1695395 |      1695395 |      1695395 |xxxxxxxxxxxxx |xxxxxxxxxxxxx |xxxxxxxxxxxxx |xxxxxxxxxxxxx |      3611567 |      3611567 |      3611567 |xxxxxxxxxxxxx |xxxxxxxxxxxxx |xxxxxxxxxxxxx |xxxxxxxxxxxxx |      7715609 |      7715609 |      7715609 |xxxxxxxxxxxxx |xxxxxxxxxxxxx |xxxxxxxxxxxxx |xxxxxxxxxxxxx |     16179939 |     16179939 |     16179939 |xxxxxxxxxxxxx |xxxxxxxxxxxxx |xxxxxxxxxxxxx |xxxxxxxxxxxxx |     34142273 |     34142273 |     34142273 |xxxxxxxxxxxxx |xxxxxxxxxxxxx |xxxxxxxxxxxxx |xxxxxxxxxxxxx |     72203808 |     72203808 |     72203808 |xxxxxxxxxxxxx |xxxxxxxxxxxxx |xxxxxxxxxxxxx |xxxxxxxxxxxxx |    150396295 |    150396295 |    150396295 |xxxxxxxxxxxxx |xxxxxxxxxxxxx |xxxxxxxxxxxxx |xxxxxxxxxxxxx |    315059874 |    315059874 |    315059874 |
bpred_bimod.addr_hits                       140753 |       140759 |       140760 |xxxxxxxxxxxxx |xxxxxxxxxxxxx |xxxxxxxxxxxxx |xxxxxxxxxxxxx |       304186 |       304193 |       304196 |xxxxxxxxxxxxx |xxxxxxxxxxxxx |xxxxxxxxxxxxx |xxxxxxxxxxxxx |       658249 |       658255 |       658254 |xxxxxxxxxxxxx |xxxxxxxxxxxxx |xxxxxxxxxxxxx |xxxxxxxxxxxxx |      1383197 |      1383205 |      1383206 |xxxxxxxxxxxxx |xxxxxxxxxxxxx |xxxxxxxxxxxxx |xxxxxxxxxxxxx |      2945263 |      2945271 |      2945272 |xxxxxxxxxxxxx |xxxxxxxxxxxxx |xxxxxxxxxxxxx |xxxxxxxxxxxxx |      6316874 |      6316883 |      6316883 |xxxxxxxxxxxxx |xxxxxxxxxxxxx |xxxxxxxxxxxxx |xxxxxxxxxxxxx |     13168577 |     13168586 |     13168586 |xxxxxxxxxxxxx |xxxxxxxxxxxxx |xxxxxxxxxxxxx |xxxxxxxxxxxxx |     27797605 |     27797614 |     27797614 |xxxxxxxxxxxxx |xxxxxxxxxxxxx |xxxxxxxxxxxxx |xxxxxxxxxxxxx |     58951319 |     58951327 |     58951327 |xxxxxxxxxxxxx |xxxxxxxxxxxxx |xxxxxxxxxxxxx |xxxxxxxxxxxxx |    122204999 |    122205006 |    122205006 |xxxxxxxxxxxxx |xxxxxxxxxxxxx |xxxxxxxxxxxxx |xxxxxxxxxxxxx |    256045802 |    256045809 |    256045809 |
bpred_bimod.dir_hits                        140873 |       140879 |       140879 |xxxxxxxxxxxxx |xxxxxxxxxxxxx |xxxxxxxxxxxxx |xxxxxxxxxxxxx |       304310 |       304317 |       304319 |xxxxxxxxxxxxx |xxxxxxxxxxxxx |xxxxxxxxxxxxx |xxxxxxxxxxxxx |       658379 |       658381 |       658377 |xxxxxxxxxxxxx |xxxxxxxxxxxxx |xxxxxxxxxxxxx |xxxxxxxxxxxxx |      1383320 |      1383327 |      1383327 |xxxxxxxxxxxxx |xxxxxxxxxxxxx |xxxxxxxxxxxxx |xxxxxxxxxxxxx |      2945388 |      2945395 |      2945395 |xxxxxxxxxxxxx |xxxxxxxxxxxxx |xxxxxxxxxxxxx |xxxxxxxxxxxxx |      6316999 |      6317007 |      6317006 |xxxxxxxxxxxxx |xxxxxxxxxxxxx |xxxxxxxxxxxxx |xxxxxxxxxxxxx |     13168702 |     13168710 |     13168709 |xxxxxxxxxxxxx |xxxxxxxxxxxxx |xxxxxxxxxxxxx |xxxxxxxxxxxxx |     27797731 |     27797739 |     27797738 |xxxxxxxxxxxxx |xxxxxxxxxxxxx |xxxxxxxxxxxxx |xxxxxxxxxxxxx |     58951458 |     58951464 |     58951463 |xxxxxxxxxxxxx |xxxxxxxxxxxxx |xxxxxxxxxxxxx |xxxxxxxxxxxxx |    122205137 |    122205142 |    122205141 |xxxxxxxxxxxxx |xxxxxxxxxxxxx |xxxxxxxxxxxxx |xxxxxxxxxxxxx |    256045941 |    256045946 |    256045945 |
bpred_bimod.misses                           31117 |        31111 |        31111 |xxxxxxxxxxxxx |xxxxxxxxxxxxx |xxxxxxxxxxxxx |xxxxxxxxxxxxx |        66923 |        66916 |        66914 |xxxxxxxxxxxxx |xxxxxxxxxxxxx |xxxxxxxxxxxxx |xxxxxxxxxxxxx |       142929 |       142927 |       142931 |xxxxxxxxxxxxx |xxxxxxxxxxxxx |xxxxxxxxxxxxx |xxxxxxxxxxxxx |       312075 |       312068 |       312068 |xxxxxxxxxxxxx |xxxxxxxxxxxxx |xxxxxxxxxxxxx |xxxxxxxxxxxxx |       666179 |       666172 |       666172 |xxxxxxxxxxxxx |xxxxxxxxxxxxx |xxxxxxxxxxxxx |xxxxxxxxxxxxx |      1398610 |      1398602 |      1398603 |xxxxxxxxxxxxx |xxxxxxxxxxxxx |xxxxxxxxxxxxx |xxxxxxxxxxxxx |      3011237 |      3011229 |      3011230 |xxxxxxxxxxxxx |xxxxxxxxxxxxx |xxxxxxxxxxxxx |xxxxxxxxxxxxx |      6344542 |      6344534 |      6344535 |xxxxxxxxxxxxx |xxxxxxxxxxxxx |xxxxxxxxxxxxx |xxxxxxxxxxxxx |     13252350 |     13252344 |     13252345 |xxxxxxxxxxxxx |xxxxxxxxxxxxx |xxxxxxxxxxxxx |xxxxxxxxxxxxx |     28191158 |     28191153 |     28191154 |xxxxxxxxxxxxx |xxxxxxxxxxxxx |xxxxxxxxxxxxx |xxxxxxxxxxxxx |     59013933 |     59013928 |     59013929 |
bpred_bimod.jr_hits                           4157 |         4157 |         4157 |xxxxxxxxxxxxx |xxxxxxxxxxxxx |xxxxxxxxxxxxx |xxxxxxxxxxxxx |         8261 |         8261 |         8261 |xxxxxxxxxxxxx |xxxxxxxxxxxxx |xxxxxxxxxxxxx |xxxxxxxxxxxxx |        16453 |        16453 |        16453 |xxxxxxxxxxxxx |xxxxxxxxxxxxx |xxxxxxxxxxxxx |xxxxxxxxxxxxx |        32837 |        32837 |        32837 |xxxxxxxxxxxxx |xxxxxxxxxxxxx |xxxxxxxxxxxxx |xxxxxxxxxxxxx |        65605 |        65605 |        65605 |xxxxxxxxxxxxx |xxxxxxxxxxxxx |xxxxxxxxxxxxx |xxxxxxxxxxxxx |       131141 |       131141 |       131141 |xxxxxxxxxxxxx |xxxxxxxxxxxxx |xxxxxxxxxxxxx |xxxxxxxxxxxxx |       262213 |       262213 |       262213 |xxxxxxxxxxxxx |xxxxxxxxxxxxx |xxxxxxxxxxxxx |xxxxxxxxxxxxx |       524357 |       524357 |       524357 |xxxxxxxxxxxxx |xxxxxxxxxxxxx |xxxxxxxxxxxxx |xxxxxxxxxxxxx |      1048648 |      1048648 |      1048648 |xxxxxxxxxxxxx |xxxxxxxxxxxxx |xxxxxxxxxxxxx |xxxxxxxxxxxxx |      2097224 |      2097224 |      2097224 |xxxxxxxxxxxxx |xxxxxxxxxxxxx |xxxxxxxxxxxxx |xxxxxxxxxxxxx |      4194376 |      4194376 |      4194376 |
bpred_bimod.jr_seen                           4157 |         4157 |         4157 |xxxxxxxxxxxxx |xxxxxxxxxxxxx |xxxxxxxxxxxxx |xxxxxxxxxxxxx |         8262 |         8262 |         8262 |xxxxxxxxxxxxx |xxxxxxxxxxxxx |xxxxxxxxxxxxx |xxxxxxxxxxxxx |        16454 |        16454 |        16454 |xxxxxxxxxxxxx |xxxxxxxxxxxxx |xxxxxxxxxxxxx |xxxxxxxxxxxxx |        32838 |        32838 |        32838 |xxxxxxxxxxxxx |xxxxxxxxxxxxx |xxxxxxxxxxxxx |xxxxxxxxxxxxx |        65606 |        65606 |        65606 |xxxxxxxxxxxxx |xxxxxxxxxxxxx |xxxxxxxxxxxxx |xxxxxxxxxxxxx |       131142 |       131142 |       131142 |xxxxxxxxxxxxx |xxxxxxxxxxxxx |xxxxxxxxxxxxx |xxxxxxxxxxxxx |       262214 |       262214 |       262214 |xxxxxxxxxxxxx |xxxxxxxxxxxxx |xxxxxxxxxxxxx |xxxxxxxxxxxxx |       524358 |       524358 |       524358 |xxxxxxxxxxxxx |xxxxxxxxxxxxx |xxxxxxxxxxxxx |xxxxxxxxxxxxx |      1048649 |      1048649 |      1048649 |xxxxxxxxxxxxx |xxxxxxxxxxxxx |xxxxxxxxxxxxx |xxxxxxxxxxxxx |      2097225 |      2097225 |      2097225 |xxxxxxxxxxxxx |xxxxxxxxxxxxx |xxxxxxxxxxxxx |xxxxxxxxxxxxx |      4194377 |      4194377 |      4194377 |
bpred_bimod.jr_non_ras_hits.PP                   0 |            0 |            0 |xxxxxxxxxxxxx |xxxxxxxxxxxxx |xxxxxxxxxxxxx |xxxxxxxxxxxxx |            0 |            0 |            0 |xxxxxxxxxxxxx |xxxxxxxxxxxxx |xxxxxxxxxxxxx |xxxxxxxxxxxxx |            0 |            0 |            0 |xxxxxxxxxxxxx |xxxxxxxxxxxxx |xxxxxxxxxxxxx |xxxxxxxxxxxxx |            0 |            0 |            0 |xxxxxxxxxxxxx |xxxxxxxxxxxxx |xxxxxxxxxxxxx |xxxxxxxxxxxxx |            0 |            0 |            0 |xxxxxxxxxxxxx |xxxxxxxxxxxxx |xxxxxxxxxxxxx |xxxxxxxxxxxxx |            0 |            0 |            0 |xxxxxxxxxxxxx |xxxxxxxxxxxxx |xxxxxxxxxxxxx |xxxxxxxxxxxxx |            0 |            0 |            0 |xxxxxxxxxxxxx |xxxxxxxxxxxxx |xxxxxxxxxxxxx |xxxxxxxxxxxxx |            0 |            0 |            0 |xxxxxxxxxxxxx |xxxxxxxxxxxxx |xxxxxxxxxxxxx |xxxxxxxxxxxxx |            0 |            0 |            0 |xxxxxxxxxxxxx |xxxxxxxxxxxxx |xxxxxxxxxxxxx |xxxxxxxxxxxxx |            0 |            0 |            0 |xxxxxxxxxxxxx |xxxxxxxxxxxxx |xxxxxxxxxxxxx |xxxxxxxxxxxxx |            0 |            0 |            0 |
bpred_bimod.jr_non_ras_seen.PP                   0 |            0 |            0 |xxxxxxxxxxxxx |xxxxxxxxxxxxx |xxxxxxxxxxxxx |xxxxxxxxxxxxx |            0 |            0 |            0 |xxxxxxxxxxxxx |xxxxxxxxxxxxx |xxxxxxxxxxxxx |xxxxxxxxxxxxx |            0 |            0 |            0 |xxxxxxxxxxxxx |xxxxxxxxxxxxx |xxxxxxxxxxxxx |xxxxxxxxxxxxx |            0 |            0 |            0 |xxxxxxxxxxxxx |xxxxxxxxxxxxx |xxxxxxxxxxxxx |xxxxxxxxxxxxx |            0 |            0 |            0 |xxxxxxxxxxxxx |xxxxxxxxxxxxx |xxxxxxxxxxxxx |xxxxxxxxxxxxx |            0 |            0 |            0 |xxxxxxxxxxxxx |xxxxxxxxxxxxx |xxxxxxxxxxxxx |xxxxxxxxxxxxx |            0 |            0 |            0 |xxxxxxxxxxxxx |xxxxxxxxxxxxx |xxxxxxxxxxxxx |xxxxxxxxxxxxx |            0 |            0 |            0 |xxxxxxxxxxxxx |xxxxxxxxxxxxx |xxxxxxxxxxxxx |xxxxxxxxxxxxx |            1 |            1 |            1 |xxxxxxxxxxxxx |xxxxxxxxxxxxx |xxxxxxxxxxxxx |xxxxxxxxxxxxx |            1 |            1 |            1 |xxxxxxxxxxxxx |xxxxxxxxxxxxx |xxxxxxxxxxxxx |xxxxxxxxxxxxx |            1 |            1 |            1 |
bpred_bimod.bpred_addr_rate                 0.8184 |       0.8184 |       0.8184 |xxxxxxxxxxxxx |xxxxxxxxxxxxx |xxxxxxxxxxxxx |xxxxxxxxxxxxx |       0.8194 |       0.8194 |       0.8194 |xxxxxxxxxxxxx |xxxxxxxxxxxxx |xxxxxxxxxxxxx |xxxxxxxxxxxxx |       0.8215 |       0.8215 |       0.8215 |xxxxxxxxxxxxx |xxxxxxxxxxxxx |xxxxxxxxxxxxx |xxxxxxxxxxxxx |       0.8159 |       0.8159 |       0.8159 |xxxxxxxxxxxxx |xxxxxxxxxxxxx |xxxxxxxxxxxxx |xxxxxxxxxxxxx |       0.8155 |       0.8155 |       0.8155 |xxxxxxxxxxxxx |xxxxxxxxxxxxx |xxxxxxxxxxxxx |xxxxxxxxxxxxx |       0.8187 |       0.8187 |       0.8187 |xxxxxxxxxxxxx |xxxxxxxxxxxxx |xxxxxxxxxxxxx |xxxxxxxxxxxxx |       0.8139 |       0.8139 |       0.8139 |xxxxxxxxxxxxx |xxxxxxxxxxxxx |xxxxxxxxxxxxx |xxxxxxxxxxxxx |       0.8142 |       0.8142 |       0.8142 |xxxxxxxxxxxxx |xxxxxxxxxxxxx |xxxxxxxxxxxxx |xxxxxxxxxxxxx |       0.8165 |       0.8165 |       0.8165 |xxxxxxxxxxxxx |xxxxxxxxxxxxx |xxxxxxxxxxxxx |xxxxxxxxxxxxx |       0.8126 |       0.8126 |       0.8126 |xxxxxxxxxxxxx |xxxxxxxxxxxxx |xxxxxxxxxxxxx |xxxxxxxxxxxxx |       0.8127 |       0.8127 |       0.8127 |
bpred_bimod.bpred_dir_rate                  0.8191 |       0.8191 |       0.8191 |xxxxxxxxxxxxx |xxxxxxxxxxxxx |xxxxxxxxxxxxx |xxxxxxxxxxxxx |       0.8197 |       0.8197 |       0.8198 |xxxxxxxxxxxxx |xxxxxxxxxxxxx |xxxxxxxxxxxxx |xxxxxxxxxxxxx |       0.8216 |       0.8216 |       0.8216 |xxxxxxxxxxxxx |xxxxxxxxxxxxx |xxxxxxxxxxxxx |xxxxxxxxxxxxx |       0.8159 |       0.8159 |       0.8159 |xxxxxxxxxxxxx |xxxxxxxxxxxxx |xxxxxxxxxxxxx |xxxxxxxxxxxxx |       0.8155 |       0.8155 |       0.8155 |xxxxxxxxxxxxx |xxxxxxxxxxxxx |xxxxxxxxxxxxx |xxxxxxxxxxxxx |       0.8187 |       0.8187 |       0.8187 |xxxxxxxxxxxxx |xxxxxxxxxxxxx |xxxxxxxxxxxxx |xxxxxxxxxxxxx |       0.8139 |       0.8139 |       0.8139 |xxxxxxxxxxxxx |xxxxxxxxxxxxx |xxxxxxxxxxxxx |xxxxxxxxxxxxx |       0.8142 |       0.8142 |       0.8142 |xxxxxxxxxxxxx |xxxxxxxxxxxxx |xxxxxxxxxxxxx |xxxxxxxxxxxxx |       0.8165 |       0.8165 |       0.8165 |xxxxxxxxxxxxx |xxxxxxxxxxxxx |xxxxxxxxxxxxx |xxxxxxxxxxxxx |       0.8126 |       0.8126 |       0.8126 |xxxxxxxxxxxxx |xxxxxxxxxxxxx |xxxxxxxxxxxxx |xxxxxxxxxxxxx |       0.8127 |       0.8127 |       0.8127 |
bpred_bimod.bpred_jr_rate                   1.0000 |       1.0000 |       1.0000 |xxxxxxxxxxxxx |xxxxxxxxxxxxx |xxxxxxxxxxxxx |xxxxxxxxxxxxx |       0.9999 |       0.9999 |       0.9999 |xxxxxxxxxxxxx |xxxxxxxxxxxxx |xxxxxxxxxxxxx |xxxxxxxxxxxxx |       0.9999 |       0.9999 |       0.9999 |xxxxxxxxxxxxx |xxxxxxxxxxxxx |xxxxxxxxxxxxx |xxxxxxxxxxxxx |       1.0000 |       1.0000 |       1.0000 |xxxxxxxxxxxxx |xxxxxxxxxxxxx |xxxxxxxxxxxxx |xxxxxxxxxxxxx |       1.0000 |       1.0000 |       1.0000 |xxxxxxxxxxxxx |xxxxxxxxxxxxx |xxxxxxxxxxxxx |xxxxxxxxxxxxx |       1.0000 |       1.0000 |       1.0000 |xxxxxxxxxxxxx |xxxxxxxxxxxxx |xxxxxxxxxxxxx |xxxxxxxxxxxxx |       1.0000 |       1.0000 |       1.0000 |xxxxxxxxxxxxx |xxxxxxxxxxxxx |xxxxxxxxxxxxx |xxxxxxxxxxxxx |       1.0000 |       1.0000 |       1.0000 |xxxxxxxxxxxxx |xxxxxxxxxxxxx |xxxxxxxxxxxxx |xxxxxxxxxxxxx |       1.0000 |       1.0000 |       1.0000 |xxxxxxxxxxxxx |xxxxxxxxxxxxx |xxxxxxxxxxxxx |xxxxxxxxxxxxx |       1.0000 |       1.0000 |       1.0000 |xxxxxxxxxxxxx |xxxxxxxxxxxxx |xxxxxxxxxxxxx |xxxxxxxxxxxxx |       1.0000 |       1.0000 |       1.0000 |
bpred_bimod.bpred_jr_non_ras_rate.PP       <error: |      <error: |      <error: |xxxxxxxxxxxxx |xxxxxxxxxxxxx |xxxxxxxxxxxxx |xxxxxxxxxxxxx |      <error: |      <error: |      <error: |xxxxxxxxxxxxx |xxxxxxxxxxxxx |xxxxxxxxxxxxx |xxxxxxxxxxxxx |      <error: |      <error: |      <error: |xxxxxxxxxxxxx |xxxxxxxxxxxxx |xxxxxxxxxxxxx |xxxxxxxxxxxxx |      <error: |      <error: |      <error: |xxxxxxxxxxxxx |xxxxxxxxxxxxx |xxxxxxxxxxxxx |xxxxxxxxxxxxx |      <error: |      <error: |      <error: |xxxxxxxxxxxxx |xxxxxxxxxxxxx |xxxxxxxxxxxxx |xxxxxxxxxxxxx |      <error: |      <error: |      <error: |xxxxxxxxxxxxx |xxxxxxxxxxxxx |xxxxxxxxxxxxx |xxxxxxxxxxxxx |      <error: |      <error: |      <error: |xxxxxxxxxxxxx |xxxxxxxxxxxxx |xxxxxxxxxxxxx |xxxxxxxxxxxxx |      <error: |      <error: |      <error: |xxxxxxxxxxxxx |xxxxxxxxxxxxx |xxxxxxxxxxxxx |xxxxxxxxxxxxx |       0.0000 |       0.0000 |       0.0000 |xxxxxxxxxxxxx |xxxxxxxxxxxxx |xxxxxxxxxxxxx |xxxxxxxxxxxxx |       0.0000 |       0.0000 |       0.0000 |xxxxxxxxxxxxx |xxxxxxxxxxxxx |xxxxxxxxxxxxx |xxxxxxxxxxxxx |       0.0000 |       0.0000 |       0.0000 |
bpred_bimod.retstack_pushes                   4159 |         4159 |         4159 |xxxxxxxxxxxxx |xxxxxxxxxxxxx |xxxxxxxxxxxxx |xxxxxxxxxxxxx |         8264 |         8264 |         8264 |xxxxxxxxxxxxx |xxxxxxxxxxxxx |xxxxxxxxxxxxx |xxxxxxxxxxxxx |        16456 |        16456 |        16456 |xxxxxxxxxxxxx |xxxxxxxxxxxxx |xxxxxxxxxxxxx |xxxxxxxxxxxxx |        32840 |        32840 |        32840 |xxxxxxxxxxxxx |xxxxxxxxxxxxx |xxxxxxxxxxxxx |xxxxxxxxxxxxx |        65608 |        65608 |        65608 |xxxxxxxxxxxxx |xxxxxxxxxxxxx |xxxxxxxxxxxxx |xxxxxxxxxxxxx |       131144 |       131144 |       131144 |xxxxxxxxxxxxx |xxxxxxxxxxxxx |xxxxxxxxxxxxx |xxxxxxxxxxxxx |       262216 |       262216 |       262216 |xxxxxxxxxxxxx |xxxxxxxxxxxxx |xxxxxxxxxxxxx |xxxxxxxxxxxxx |       524360 |       524360 |       524360 |xxxxxxxxxxxxx |xxxxxxxxxxxxx |xxxxxxxxxxxxx |xxxxxxxxxxxxx |      1048650 |      1048650 |      1048650 |xxxxxxxxxxxxx |xxxxxxxxxxxxx |xxxxxxxxxxxxx |xxxxxxxxxxxxx |      2097226 |      2097226 |      2097226 |xxxxxxxxxxxxx |xxxxxxxxxxxxx |xxxxxxxxxxxxx |xxxxxxxxxxxxx |      4194378 |      4194378 |      4194378 |
bpred_bimod.retstack_pops                     4157 |         4157 |         4157 |xxxxxxxxxxxxx |xxxxxxxxxxxxx |xxxxxxxxxxxxx |xxxxxxxxxxxxx |         8262 |         8262 |         8262 |xxxxxxxxxxxxx |xxxxxxxxxxxxx |xxxxxxxxxxxxx |xxxxxxxxxxxxx |        16454 |        16454 |        16454 |xxxxxxxxxxxxx |xxxxxxxxxxxxx |xxxxxxxxxxxxx |xxxxxxxxxxxxx |        32838 |        32838 |        32838 |xxxxxxxxxxxxx |xxxxxxxxxxxxx |xxxxxxxxxxxxx |xxxxxxxxxxxxx |        65606 |        65606 |        65606 |xxxxxxxxxxxxx |xxxxxxxxxxxxx |xxxxxxxxxxxxx |xxxxxxxxxxxxx |       131142 |       131142 |       131142 |xxxxxxxxxxxxx |xxxxxxxxxxxxx |xxxxxxxxxxxxx |xxxxxxxxxxxxx |       262214 |       262214 |       262214 |xxxxxxxxxxxxx |xxxxxxxxxxxxx |xxxxxxxxxxxxx |xxxxxxxxxxxxx |       524358 |       524358 |       524358 |xxxxxxxxxxxxx |xxxxxxxxxxxxx |xxxxxxxxxxxxx |xxxxxxxxxxxxx |      1048648 |      1048648 |      1048648 |xxxxxxxxxxxxx |xxxxxxxxxxxxx |xxxxxxxxxxxxx |xxxxxxxxxxxxx |      2097224 |      2097224 |      2097224 |xxxxxxxxxxxxx |xxxxxxxxxxxxx |xxxxxxxxxxxxx |xxxxxxxxxxxxx |      4194376 |      4194376 |      4194376 |
bpred_bimod.used_ras.PP                       4157 |         4157 |         4157 |xxxxxxxxxxxxx |xxxxxxxxxxxxx |xxxxxxxxxxxxx |xxxxxxxxxxxxx |         8262 |         8262 |         8262 |xxxxxxxxxxxxx |xxxxxxxxxxxxx |xxxxxxxxxxxxx |xxxxxxxxxxxxx |        16454 |        16454 |        16454 |xxxxxxxxxxxxx |xxxxxxxxxxxxx |xxxxxxxxxxxxx |xxxxxxxxxxxxx |        32838 |        32838 |        32838 |xxxxxxxxxxxxx |xxxxxxxxxxxxx |xxxxxxxxxxxxx |xxxxxxxxxxxxx |        65606 |        65606 |        65606 |xxxxxxxxxxxxx |xxxxxxxxxxxxx |xxxxxxxxxxxxx |xxxxxxxxxxxxx |       131142 |       131142 |       131142 |xxxxxxxxxxxxx |xxxxxxxxxxxxx |xxxxxxxxxxxxx |xxxxxxxxxxxxx |       262214 |       262214 |       262214 |xxxxxxxxxxxxx |xxxxxxxxxxxxx |xxxxxxxxxxxxx |xxxxxxxxxxxxx |       524358 |       524358 |       524358 |xxxxxxxxxxxxx |xxxxxxxxxxxxx |xxxxxxxxxxxxx |xxxxxxxxxxxxx |      1048648 |      1048648 |      1048648 |xxxxxxxxxxxxx |xxxxxxxxxxxxx |xxxxxxxxxxxxx |xxxxxxxxxxxxx |      2097224 |      2097224 |      2097224 |xxxxxxxxxxxxx |xxxxxxxxxxxxx |xxxxxxxxxxxxx |xxxxxxxxxxxxx |      4194376 |      4194376 |      4194376 |
bpred_bimod.ras_hits.PP                       4157 |         4157 |         4157 |xxxxxxxxxxxxx |xxxxxxxxxxxxx |xxxxxxxxxxxxx |xxxxxxxxxxxxx |         8261 |         8261 |         8261 |xxxxxxxxxxxxx |xxxxxxxxxxxxx |xxxxxxxxxxxxx |xxxxxxxxxxxxx |        16453 |        16453 |        16453 |xxxxxxxxxxxxx |xxxxxxxxxxxxx |xxxxxxxxxxxxx |xxxxxxxxxxxxx |        32837 |        32837 |        32837 |xxxxxxxxxxxxx |xxxxxxxxxxxxx |xxxxxxxxxxxxx |xxxxxxxxxxxxx |        65605 |        65605 |        65605 |xxxxxxxxxxxxx |xxxxxxxxxxxxx |xxxxxxxxxxxxx |xxxxxxxxxxxxx |       131141 |       131141 |       131141 |xxxxxxxxxxxxx |xxxxxxxxxxxxx |xxxxxxxxxxxxx |xxxxxxxxxxxxx |       262213 |       262213 |       262213 |xxxxxxxxxxxxx |xxxxxxxxxxxxx |xxxxxxxxxxxxx |xxxxxxxxxxxxx |       524357 |       524357 |       524357 |xxxxxxxxxxxxx |xxxxxxxxxxxxx |xxxxxxxxxxxxx |xxxxxxxxxxxxx |      1048648 |      1048648 |      1048648 |xxxxxxxxxxxxx |xxxxxxxxxxxxx |xxxxxxxxxxxxx |xxxxxxxxxxxxx |      2097224 |      2097224 |      2097224 |xxxxxxxxxxxxx |xxxxxxxxxxxxx |xxxxxxxxxxxxx |xxxxxxxxxxxxx |      4194376 |      4194376 |      4194376 |
bpred_bimod.ras_rate.PP                     1.0000 |       1.0000 |       1.0000 |xxxxxxxxxxxxx |xxxxxxxxxxxxx |xxxxxxxxxxxxx |xxxxxxxxxxxxx |       0.9999 |       0.9999 |       0.9999 |xxxxxxxxxxxxx |xxxxxxxxxxxxx |xxxxxxxxxxxxx |xxxxxxxxxxxxx |       0.9999 |       0.9999 |       0.9999 |xxxxxxxxxxxxx |xxxxxxxxxxxxx |xxxxxxxxxxxxx |xxxxxxxxxxxxx |       1.0000 |       1.0000 |       1.0000 |xxxxxxxxxxxxx |xxxxxxxxxxxxx |xxxxxxxxxxxxx |xxxxxxxxxxxxx |       1.0000 |       1.0000 |       1.0000 |xxxxxxxxxxxxx |xxxxxxxxxxxxx |xxxxxxxxxxxxx |xxxxxxxxxxxxx |       1.0000 |       1.0000 |       1.0000 |xxxxxxxxxxxxx |xxxxxxxxxxxxx |xxxxxxxxxxxxx |xxxxxxxxxxxxx |       1.0000 |       1.0000 |       1.0000 |xxxxxxxxxxxxx |xxxxxxxxxxxxx |xxxxxxxxxxxxx |xxxxxxxxxxxxx |       1.0000 |       1.0000 |       1.0000 |xxxxxxxxxxxxx |xxxxxxxxxxxxx |xxxxxxxxxxxxx |xxxxxxxxxxxxx |       1.0000 |       1.0000 |       1.0000 |xxxxxxxxxxxxx |xxxxxxxxxxxxx |xxxxxxxxxxxxx |xxxxxxxxxxxxx |       1.0000 |       1.0000 |       1.0000 |xxxxxxxxxxxxx |xxxxxxxxxxxxx |xxxxxxxxxxxxx |xxxxxxxxxxxxx |       1.0000 |       1.0000 |       1.0000 |
bpred_2lev.lookups                   xxxxxxxxxxxxx |xxxxxxxxxxxxx |xxxxxxxxxxxxx |       171990 |       171990 |       171990 |       171990 |xxxxxxxxxxxxx |xxxxxxxxxxxxx |xxxxxxxxxxxxx |       371233 |       371233 |       371233 |       371233 |xxxxxxxxxxxxx |xxxxxxxxxxxxx |xxxxxxxxxxxxx |       801308 |       801308 |       801308 |       801308 |xxxxxxxxxxxxx |xxxxxxxxxxxxx |xxxxxxxxxxxxx |      1695395 |      1695395 |      1695395 |      1695395 |xxxxxxxxxxxxx |xxxxxxxxxxxxx |xxxxxxxxxxxxx |      3611567 |      3611567 |      3611567 |      3611567 |xxxxxxxxxxxxx |xxxxxxxxxxxxx |xxxxxxxxxxxxx |      7715609 |      7715609 |      7715609 |      7715609 |xxxxxxxxxxxxx |xxxxxxxxxxxxx |xxxxxxxxxxxxx |     16179939 |     16179939 |     16179939 |     16179939 |xxxxxxxxxxxxx |xxxxxxxxxxxxx |xxxxxxxxxxxxx |     34142273 |     34142273 |     34142273 |     34142273 |xxxxxxxxxxxxx |xxxxxxxxxxxxx |xxxxxxxxxxxxx |     72203808 |     72203808 |     72203808 |     72203808 |xxxxxxxxxxxxx |xxxxxxxxxxxxx |xxxxxxxxxxxxx |    150396295 |    150396295 |    150396295 |    150396295 |xxxxxxxxxxxxx |xxxxxxxxxxxxx |xxxxxxxxxxxxx |    315059874 |    315059874 |    315059874 |    315059874 |
[...]
bpred_2lev.retstack_pushes           xxxxxxxxxxxxx |xxxxxxxxxxxxx |xxxxxxxxxxxxx |         4159 |         4159 |         4159 |         4159 |xxxxxxxxxxxxx |xxxxxxxxxxxxx |xxxxxxxxxxxxx |         8264 |         8264 |         8264 |         8264 |xxxxxxxxxxxxx |xxxxxxxxxxxxx |xxxxxxxxxxxxx |        16456 |        16456 |        16456 |        16456 |xxxxxxxxxxxxx |xxxxxxxxxxxxx |xxxxxxxxxxxxx |        32840 |        32840 |        32840 |        32840 |xxxxxxxxxxxxx |xxxxxxxxxxxxx |xxxxxxxxxxxxx |        65608 |        65608 |        65608 |        65608 |xxxxxxxxxxxxx |xxxxxxxxxxxxx |xxxxxxxxxxxxx |       131144 |       131144 |       131144 |       131144 |xxxxxxxxxxxxx |xxxxxxxxxxxxx |xxxxxxxxxxxxx |       262216 |       262216 |       262216 |       262216 |xxxxxxxxxxxxx |xxxxxxxxxxxxx |xxxxxxxxxxxxx |       524360 |       524360 |       524360 |       524360 |xxxxxxxxxxxxx |xxxxxxxxxxxxx |xxxxxxxxxxxxx |      1048650 |      1048650 |      1048650 |      1048650 |xxxxxxxxxxxxx |xxxxxxxxxxxxx |xxxxxxxxxxxxx |      2097226 |      2097226 |      2097226 |      2097226 |xxxxxxxxxxxxx |xxxxxxxxxxxxx |xxxxxxxxxxxxx |      4194378 |      4194378 |      4194378 |      4194378 |
bpred_2lev.retstack_pops             xxxxxxxxxxxxx |xxxxxxxxxxxxx |xxxxxxxxxxxxx |         4157 |         4157 |         4157 |         4157 |xxxxxxxxxxxxx |xxxxxxxxxxxxx |xxxxxxxxxxxxx |         8262 |         8262 |         8262 |         8262 |xxxxxxxxxxxxx |xxxxxxxxxxxxx |xxxxxxxxxxxxx |        16454 |        16454 |        16454 |        16454 |xxxxxxxxxxxxx |xxxxxxxxxxxxx |xxxxxxxxxxxxx |        32838 |        32838 |        32838 |        32838 |xxxxxxxxxxxxx |xxxxxxxxxxxxx |xxxxxxxxxxxxx |        65606 |        65606 |        65606 |        65606 |xxxxxxxxxxxxx |xxxxxxxxxxxxx |xxxxxxxxxxxxx |       131142 |       131142 |       131142 |       131142 |xxxxxxxxxxxxx |xxxxxxxxxxxxx |xxxxxxxxxxxxx |       262214 |       262214 |       262214 |       262214 |xxxxxxxxxxxxx |xxxxxxxxxxxxx |xxxxxxxxxxxxx |       524358 |       524358 |       524358 |       524358 |xxxxxxxxxxxxx |xxxxxxxxxxxxx |xxxxxxxxxxxxx |      1048648 |      1048648 |      1048648 |      1048648 |xxxxxxxxxxxxx |xxxxxxxxxxxxx |xxxxxxxxxxxxx |      2097224 |      2097224 |      2097224 |      2097224 |xxxxxxxxxxxxx |xxxxxxxxxxxxx |xxxxxxxxxxxxx |      4194376 |      4194376 |      4194376 |      4194376 |
bpred_2lev.used_ras.PP               xxxxxxxxxxxxx |xxxxxxxxxxxxx |xxxxxxxxxxxxx |         4157 |         4157 |         4157 |         4157 |xxxxxxxxxxxxx |xxxxxxxxxxxxx |xxxxxxxxxxxxx |         8262 |         8262 |         8262 |         8262 |xxxxxxxxxxxxx |xxxxxxxxxxxxx |xxxxxxxxxxxxx |        16454 |        16454 |        16454 |        16454 |xxxxxxxxxxxxx |xxxxxxxxxxxxx |xxxxxxxxxxxxx |        32838 |        32838 |        32838 |        32838 |xxxxxxxxxxxxx |xxxxxxxxxxxxx |xxxxxxxxxxxxx |        65606 |        65606 |        65606 |        65606 |xxxxxxxxxxxxx |xxxxxxxxxxxxx |xxxxxxxxxxxxx |       131142 |       131142 |       131142 |       131142 |xxxxxxxxxxxxx |xxxxxxxxxxxxx |xxxxxxxxxxxxx |       262214 |       262214 |       262214 |       262214 |xxxxxxxxxxxxx |xxxxxxxxxxxxx |xxxxxxxxxxxxx |       524358 |       524358 |       524358 |       524358 |xxxxxxxxxxxxx |xxxxxxxxxxxxx |xxxxxxxxxxxxx |      1048648 |      1048648 |      1048648 |      1048648 |xxxxxxxxxxxxx |xxxxxxxxxxxxx |xxxxxxxxxxxxx |      2097224 |      2097224 |      2097224 |      2097224 |xxxxxxxxxxxxx |xxxxxxxxxxxxx |xxxxxxxxxxxxx |      4194376 |      4194376 |      4194376 |      4194376 |
bpred_2lev.ras_hits.PP               xxxxxxxxxxxxx |xxxxxxxxxxxxx |xxxxxxxxxxxxx |         4157 |         4157 |         4157 |         4157 |xxxxxxxxxxxxx |xxxxxxxxxxxxx |xxxxxxxxxxxxx |         8261 |         8261 |         8261 |         8261 |xxxxxxxxxxxxx |xxxxxxxxxxxxx |xxxxxxxxxxxxx |        16453 |        16453 |        16453 |        16453 |xxxxxxxxxxxxx |xxxxxxxxxxxxx |xxxxxxxxxxxxx |        32837 |        32837 |        32837 |        32837 |xxxxxxxxxxxxx |xxxxxxxxxxxxx |xxxxxxxxxxxxx |        65605 |        65605 |        65605 |        65605 |xxxxxxxxxxxxx |xxxxxxxxxxxxx |xxxxxxxxxxxxx |       131141 |       131141 |       131141 |       131141 |xxxxxxxxxxxxx |xxxxxxxxxxxxx |xxxxxxxxxxxxx |       262213 |       262213 |       262213 |       262213 |xxxxxxxxxxxxx |xxxxxxxxxxxxx |xxxxxxxxxxxxx |       524357 |       524357 |       524357 |       524357 |xxxxxxxxxxxxx |xxxxxxxxxxxxx |xxxxxxxxxxxxx |      1048648 |      1048648 |      1048648 |      1048648 |xxxxxxxxxxxxx |xxxxxxxxxxxxx |xxxxxxxxxxxxx |      2097224 |      2097224 |      2097224 |      2097224 |xxxxxxxxxxxxx |xxxxxxxxxxxxx |xxxxxxxxxxxxx |      4194376 |      4194376 |      4194376 |      4194376 |
bpred_2lev.ras_rate.PP               xxxxxxxxxxxxx |xxxxxxxxxxxxx |xxxxxxxxxxxxx |       1.0000 |       1.0000 |       1.0000 |       1.0000 |xxxxxxxxxxxxx |xxxxxxxxxxxxx |xxxxxxxxxxxxx |       0.9999 |       0.9999 |       0.9999 |       0.9999 |xxxxxxxxxxxxx |xxxxxxxxxxxxx |xxxxxxxxxxxxx |       0.9999 |       0.9999 |       0.9999 |       0.9999 |xxxxxxxxxxxxx |xxxxxxxxxxxxx |xxxxxxxxxxxxx |       1.0000 |       1.0000 |       1.0000 |       1.0000 |xxxxxxxxxxxxx |xxxxxxxxxxxxx |xxxxxxxxxxxxx |       1.0000 |       1.0000 |       1.0000 |       1.0000 |xxxxxxxxxxxxx |xxxxxxxxxxxxx |xxxxxxxxxxxxx |       1.0000 |       1.0000 |       1.0000 |       1.0000 |xxxxxxxxxxxxx |xxxxxxxxxxxxx |xxxxxxxxxxxxx |       1.0000 |       1.0000 |       1.0000 |       1.0000 |xxxxxxxxxxxxx |xxxxxxxxxxxxx |xxxxxxxxxxxxx |       1.0000 |       1.0000 |       1.0000 |       1.0000 |xxxxxxxxxxxxx |xxxxxxxxxxxxx |xxxxxxxxxxxxx |       1.0000 |       1.0000 |       1.0000 |       1.0000 |xxxxxxxxxxxxx |xxxxxxxxxxxxx |xxxxxxxxxxxxx |       1.0000 |       1.0000 |       1.0000 |       1.0000 |xxxxxxxxxxxxx |xxxxxxxxxxxxx |xxxxxxxxxxxxx |       1.0000 |       1.0000 |       1.0000 |       1.0000 |

Command list: 
	sslittle-na-sstrix-gcc -Wall -O3 -funroll-loops -finline-functions  -DRANDOM_SIZE=4096 -DOFFSET=9 -DSORT=cache_heapsort sorts/cache_heapsort354847286.c simpleMain.c -o cache_heapsort1294255848
	sim-cache -cache:dl1 dl1:256:32:1:l -cache:dl2 dl2:131072:32:1:l -cache:il1 il1:256:32:1:l -cache:il2 dl2 cache_heapsort1294255848
	sim-cache -cache:dl1 dl1:256:32:1:l -cache:dl2 dl2:65536:32:1:l -cache:il1 il1:256:32:1:l -cache:il2 dl2 cache_heapsort1294255848
	sim-cache -cache:dl1 dl1:1:32:256:l -cache:dl2 dl2:1:32:131072:l -cache:il1 il1:1:32:256:l -cache:il2 dl2 cache_heapsort1294255848
	sim-cache -cache:dl1 dl1:1:32:256:l -cache:dl2 dl2:1:32:65536:l -cache:il1 il1:1:32:256:l -cache:il2 dl2 cache_heapsort1294255848
	sim-bpred -bpred bimod -bpred:bimod 512 cache_heapsort1294255848
	sim-bpred -bpred bimod -bpred:bimod 1024 cache_heapsort1294255848
	sim-bpred -bpred bimod -bpred:bimod 2048 cache_heapsort1294255848
	sim-bpred -bpred 2lev -bpred:2lev 1 512 10 1 cache_heapsort1294255848
	sim-bpred -bpred 2lev -bpred:2lev 1 1024 10 1 cache_heapsort1294255848
	sim-bpred -bpred 2lev -bpred:2lev 1 2048 10 1 cache_heapsort1294255848
	sim-bpred -bpred 2lev -bpred:2lev 1 4096 10 1 cache_heapsort1294255848
	sslittle-na-sstrix-gcc -Wall -O3 -funroll-loops -finline-functions  -DRANDOM_SIZE=8192 -DOFFSET=9 -DSORT=cache_heapsort sorts/cache_heapsort354847286.c simpleMain.c -o cache_heapsort1294255848
	sim-cache -cache:dl1 dl1:256:32:1:l -cache:dl2 dl2:131072:32:1:l -cache:il1 il1:256:32:1:l -cache:il2 dl2 cache_heapsort1294255848
	sim-cache -cache:dl1 dl1:256:32:1:l -cache:dl2 dl2:65536:32:1:l -cache:il1 il1:256:32:1:l -cache:il2 dl2 cache_heapsort1294255848
	sim-cache -cache:dl1 dl1:1:32:256:l -cache:dl2 dl2:1:32:131072:l -cache:il1 il1:1:32:256:l -cache:il2 dl2 cache_heapsort1294255848
	sim-cache -cache:dl1 dl1:1:32:256:l -cache:dl2 dl2:1:32:65536:l -cache:il1 il1:1:32:256:l -cache:il2 dl2 cache_heapsort1294255848
	sim-bpred -bpred bimod -bpred:bimod 512 cache_heapsort1294255848
	sim-bpred -bpred bimod -bpred:bimod 1024 cache_heapsort1294255848
	sim-bpred -bpred bimod -bpred:bimod 2048 cache_heapsort1294255848
	sim-bpred -bpred 2lev -bpred:2lev 1 512 10 1 cache_heapsort1294255848
	sim-bpred -bpred 2lev -bpred:2lev 1 1024 10 1 cache_heapsort1294255848
	sim-bpred -bpred 2lev -bpred:2lev 1 2048 10 1 cache_heapsort1294255848
	sim-bpred -bpred 2lev -bpred:2lev 1 4096 10 1 cache_heapsort1294255848
	sslittle-na-sstrix-gcc -Wall -O3 -funroll-loops -finline-functions  -DRANDOM_SIZE=16384 -DOFFSET=9 -DSORT=cache_heapsort sorts/cache_heapsort354847286.c simpleMain.c -o cache_heapsort1294255848
	sim-cache -cache:dl1 dl1:256:32:1:l -cache:dl2 dl2:131072:32:1:l -cache:il1 il1:256:32:1:l -cache:il2 dl2 cache_heapsort1294255848
	sim-cache -cache:dl1 dl1:256:32:1:l -cache:dl2 dl2:65536:32:1:l -cache:il1 il1:256:32:1:l -cache:il2 dl2 cache_heapsort1294255848
	sim-cache -cache:dl1 dl1:1:32:256:l -cache:dl2 dl2:1:32:131072:l -cache:il1 il1:1:32:256:l -cache:il2 dl2 cache_heapsort1294255848
	sim-cache -cache:dl1 dl1:1:32:256:l -cache:dl2 dl2:1:32:65536:l -cache:il1 il1:1:32:256:l -cache:il2 dl2 cache_heapsort1294255848
	sim-bpred -bpred bimod -bpred:bimod 512 cache_heapsort1294255848
	sim-bpred -bpred bimod -bpred:bimod 1024 cache_heapsort1294255848
	sim-bpred -bpred bimod -bpred:bimod 2048 cache_heapsort1294255848
	sim-bpred -bpred 2lev -bpred:2lev 1 512 10 1 cache_heapsort1294255848
	sim-bpred -bpred 2lev -bpred:2lev 1 1024 10 1 cache_heapsort1294255848
	sim-bpred -bpred 2lev -bpred:2lev 1 2048 10 1 cache_heapsort1294255848
	sim-bpred -bpred 2lev -bpred:2lev 1 4096 10 1 cache_heapsort1294255848
	sslittle-na-sstrix-gcc -Wall -O3 -funroll-loops -finline-functions  -DRANDOM_SIZE=32768 -DOFFSET=9 -DSORT=cache_heapsort sorts/cache_heapsort354847286.c simpleMain.c -o cache_heapsort1294255848
	sim-cache -cache:dl1 dl1:256:32:1:l -cache:dl2 dl2:131072:32:1:l -cache:il1 il1:256:32:1:l -cache:il2 dl2 cache_heapsort1294255848
	sim-cache -cache:dl1 dl1:256:32:1:l -cache:dl2 dl2:65536:32:1:l -cache:il1 il1:256:32:1:l -cache:il2 dl2 cache_heapsort1294255848
	sim-cache -cache:dl1 dl1:1:32:256:l -cache:dl2 dl2:1:32:131072:l -cache:il1 il1:1:32:256:l -cache:il2 dl2 cache_heapsort1294255848
	sim-cache -cache:dl1 dl1:1:32:256:l -cache:dl2 dl2:1:32:65536:l -cache:il1 il1:1:32:256:l -cache:il2 dl2 cache_heapsort1294255848
	sim-bpred -bpred bimod -bpred:bimod 512 cache_heapsort1294255848
	sim-bpred -bpred bimod -bpred:bimod 1024 cache_heapsort1294255848
	sim-bpred -bpred bimod -bpred:bimod 2048 cache_heapsort1294255848
	sim-bpred -bpred 2lev -bpred:2lev 1 512 10 1 cache_heapsort1294255848
	sim-bpred -bpred 2lev -bpred:2lev 1 1024 10 1 cache_heapsort1294255848
	sim-bpred -bpred 2lev -bpred:2lev 1 2048 10 1 cache_heapsort1294255848
	sim-bpred -bpred 2lev -bpred:2lev 1 4096 10 1 cache_heapsort1294255848
	sslittle-na-sstrix-gcc -Wall -O3 -funroll-loops -finline-functions  -DRANDOM_SIZE=65536 -DOFFSET=9 -DSORT=cache_heapsort sorts/cache_heapsort354847286.c simpleMain.c -o cache_heapsort1294255848
	sim-cache -cache:dl1 dl1:256:32:1:l -cache:dl2 dl2:131072:32:1:l -cache:il1 il1:256:32:1:l -cache:il2 dl2 cache_heapsort1294255848
	sim-cache -cache:dl1 dl1:256:32:1:l -cache:dl2 dl2:65536:32:1:l -cache:il1 il1:256:32:1:l -cache:il2 dl2 cache_heapsort1294255848
	sim-cache -cache:dl1 dl1:1:32:256:l -cache:dl2 dl2:1:32:131072:l -cache:il1 il1:1:32:256:l -cache:il2 dl2 cache_heapsort1294255848
	sim-cache -cache:dl1 dl1:1:32:256:l -cache:dl2 dl2:1:32:65536:l -cache:il1 il1:1:32:256:l -cache:il2 dl2 cache_heapsort1294255848
	sim-bpred -bpred bimod -bpred:bimod 512 cache_heapsort1294255848
	sim-bpred -bpred bimod -bpred:bimod 1024 cache_heapsort1294255848
	sim-bpred -bpred bimod -bpred:bimod 2048 cache_heapsort1294255848
	sim-bpred -bpred 2lev -bpred:2lev 1 512 10 1 cache_heapsort1294255848
	sim-bpred -bpred 2lev -bpred:2lev 1 1024 10 1 cache_heapsort1294255848
	sim-bpred -bpred 2lev -bpred:2lev 1 2048 10 1 cache_heapsort1294255848
	sim-bpred -bpred 2lev -bpred:2lev 1 4096 10 1 cache_heapsort1294255848
	sslittle-na-sstrix-gcc -Wall -O3 -funroll-loops -finline-functions  -DRANDOM_SIZE=131072 -DOFFSET=9 -DSORT=cache_heapsort sorts/cache_heapsort354847286.c simpleMain.c -o cache_heapsort1294255848
	sim-cache -cache:dl1 dl1:256:32:1:l -cache:dl2 dl2:131072:32:1:l -cache:il1 il1:256:32:1:l -cache:il2 dl2 cache_heapsort1294255848
	sim-cache -cache:dl1 dl1:256:32:1:l -cache:dl2 dl2:65536:32:1:l -cache:il1 il1:256:32:1:l -cache:il2 dl2 cache_heapsort1294255848
	sim-cache -cache:dl1 dl1:1:32:256:l -cache:dl2 dl2:1:32:131072:l -cache:il1 il1:1:32:256:l -cache:il2 dl2 cache_heapsort1294255848
	sim-cache -cache:dl1 dl1:1:32:256:l -cache:dl2 dl2:1:32:65536:l -cache:il1 il1:1:32:256:l -cache:il2 dl2 cache_heapsort1294255848
	sim-bpred -bpred bimod -bpred:bimod 512 cache_heapsort1294255848
	sim-bpred -bpred bimod -bpred:bimod 1024 cache_heapsort1294255848
	sim-bpred -bpred bimod -bpred:bimod 2048 cache_heapsort1294255848
	sim-bpred -bpred 2lev -bpred:2lev 1 512 10 1 cache_heapsort1294255848
	sim-bpred -bpred 2lev -bpred:2lev 1 1024 10 1 cache_heapsort1294255848
	sim-bpred -bpred 2lev -bpred:2lev 1 2048 10 1 cache_heapsort1294255848
	sim-bpred -bpred 2lev -bpred:2lev 1 4096 10 1 cache_heapsort1294255848
	sslittle-na-sstrix-gcc -Wall -O3 -funroll-loops -finline-functions  -DRANDOM_SIZE=262144 -DOFFSET=9 -DSORT=cache_heapsort sorts/cache_heapsort354847286.c simpleMain.c -o cache_heapsort1294255848
	sim-cache -cache:dl1 dl1:256:32:1:l -cache:dl2 dl2:131072:32:1:l -cache:il1 il1:256:32:1:l -cache:il2 dl2 cache_heapsort1294255848
	sim-cache -cache:dl1 dl1:256:32:1:l -cache:dl2 dl2:65536:32:1:l -cache:il1 il1:256:32:1:l -cache:il2 dl2 cache_heapsort1294255848
	sim-cache -cache:dl1 dl1:1:32:256:l -cache:dl2 dl2:1:32:131072:l -cache:il1 il1:1:32:256:l -cache:il2 dl2 cache_heapsort1294255848
	sim-cache -cache:dl1 dl1:1:32:256:l -cache:dl2 dl2:1:32:65536:l -cache:il1 il1:1:32:256:l -cache:il2 dl2 cache_heapsort1294255848
	sim-bpred -bpred bimod -bpred:bimod 512 cache_heapsort1294255848
	sim-bpred -bpred bimod -bpred:bimod 1024 cache_heapsort1294255848
	sim-bpred -bpred bimod -bpred:bimod 2048 cache_heapsort1294255848
	sim-bpred -bpred 2lev -bpred:2lev 1 512 10 1 cache_heapsort1294255848
	sim-bpred -bpred 2lev -bpred:2lev 1 1024 10 1 cache_heapsort1294255848
	sim-bpred -bpred 2lev -bpred:2lev 1 2048 10 1 cache_heapsort1294255848
	sim-bpred -bpred 2lev -bpred:2lev 1 4096 10 1 cache_heapsort1294255848
	sslittle-na-sstrix-gcc -Wall -O3 -funroll-loops -finline-functions  -DRANDOM_SIZE=524288 -DOFFSET=9 -DSORT=cache_heapsort sorts/cache_heapsort354847286.c simpleMain.c -o cache_heapsort1294255848
	sim-cache -cache:dl1 dl1:256:32:1:l -cache:dl2 dl2:131072:32:1:l -cache:il1 il1:256:32:1:l -cache:il2 dl2 cache_heapsort1294255848
	sim-cache -cache:dl1 dl1:256:32:1:l -cache:dl2 dl2:65536:32:1:l -cache:il1 il1:256:32:1:l -cache:il2 dl2 cache_heapsort1294255848
	sim-cache -cache:dl1 dl1:1:32:256:l -cache:dl2 dl2:1:32:131072:l -cache:il1 il1:1:32:256:l -cache:il2 dl2 cache_heapsort1294255848
	sim-cache -cache:dl1 dl1:1:32:256:l -cache:dl2 dl2:1:32:65536:l -cache:il1 il1:1:32:256:l -cache:il2 dl2 cache_heapsort1294255848
	sim-bpred -bpred bimod -bpred:bimod 512 cache_heapsort1294255848
	sim-bpred -bpred bimod -bpred:bimod 1024 cache_heapsort1294255848
	sim-bpred -bpred bimod -bpred:bimod 2048 cache_heapsort1294255848
	sim-bpred -bpred 2lev -bpred:2lev 1 512 10 1 cache_heapsort1294255848
	sim-bpred -bpred 2lev -bpred:2lev 1 1024 10 1 cache_heapsort1294255848
	sim-bpred -bpred 2lev -bpred:2lev 1 2048 10 1 cache_heapsort1294255848
	sim-bpred -bpred 2lev -bpred:2lev 1 4096 10 1 cache_heapsort1294255848
	sslittle-na-sstrix-gcc -Wall -O3 -funroll-loops -finline-functions  -DRANDOM_SIZE=1048576 -DOFFSET=9 -DSORT=cache_heapsort sorts/cache_heapsort354847286.c simpleMain.c -o cache_heapsort1294255848
	sim-cache -cache:dl1 dl1:256:32:1:l -cache:dl2 dl2:131072:32:1:l -cache:il1 il1:256:32:1:l -cache:il2 dl2 cache_heapsort1294255848
	sim-cache -cache:dl1 dl1:256:32:1:l -cache:dl2 dl2:65536:32:1:l -cache:il1 il1:256:32:1:l -cache:il2 dl2 cache_heapsort1294255848
	sim-cache -cache:dl1 dl1:1:32:256:l -cache:dl2 dl2:1:32:131072:l -cache:il1 il1:1:32:256:l -cache:il2 dl2 cache_heapsort1294255848
	sim-cache -cache:dl1 dl1:1:32:256:l -cache:dl2 dl2:1:32:65536:l -cache:il1 il1:1:32:256:l -cache:il2 dl2 cache_heapsort1294255848
	sim-bpred -bpred bimod -bpred:bimod 512 cache_heapsort1294255848
	sim-bpred -bpred bimod -bpred:bimod 1024 cache_heapsort1294255848
	sim-bpred -bpred bimod -bpred:bimod 2048 cache_heapsort1294255848
	sim-bpred -bpred 2lev -bpred:2lev 1 512 10 1 cache_heapsort1294255848
	sim-bpred -bpred 2lev -bpred:2lev 1 1024 10 1 cache_heapsort1294255848
	sim-bpred -bpred 2lev -bpred:2lev 1 2048 10 1 cache_heapsort1294255848
	sim-bpred -bpred 2lev -bpred:2lev 1 4096 10 1 cache_heapsort1294255848
	sslittle-na-sstrix-gcc -Wall -O3 -funroll-loops -finline-functions  -DRANDOM_SIZE=2097152 -DOFFSET=9 -DSORT=cache_heapsort sorts/cache_heapsort354847286.c simpleMain.c -o cache_heapsort1294255848
	sim-cache -cache:dl1 dl1:256:32:1:l -cache:dl2 dl2:131072:32:1:l -cache:il1 il1:256:32:1:l -cache:il2 dl2 cache_heapsort1294255848
	sim-cache -cache:dl1 dl1:256:32:1:l -cache:dl2 dl2:65536:32:1:l -cache:il1 il1:256:32:1:l -cache:il2 dl2 cache_heapsort1294255848
	sim-cache -cache:dl1 dl1:1:32:256:l -cache:dl2 dl2:1:32:131072:l -cache:il1 il1:1:32:256:l -cache:il2 dl2 cache_heapsort1294255848
	sim-cache -cache:dl1 dl1:1:32:256:l -cache:dl2 dl2:1:32:65536:l -cache:il1 il1:1:32:256:l -cache:il2 dl2 cache_heapsort1294255848
	sim-bpred -bpred bimod -bpred:bimod 512 cache_heapsort1294255848
	sim-bpred -bpred bimod -bpred:bimod 1024 cache_heapsort1294255848
	sim-bpred -bpred bimod -bpred:bimod 2048 cache_heapsort1294255848
	sim-bpred -bpred 2lev -bpred:2lev 1 512 10 1 cache_heapsort1294255848
	sim-bpred -bpred 2lev -bpred:2lev 1 1024 10 1 cache_heapsort1294255848
	sim-bpred -bpred 2lev -bpred:2lev 1 2048 10 1 cache_heapsort1294255848
	sim-bpred -bpred 2lev -bpred:2lev 1 4096 10 1 cache_heapsort1294255848
	sslittle-na-sstrix-gcc -Wall -O3 -funroll-loops -finline-functions  -DRANDOM_SIZE=4194304 -DOFFSET=9 -DSORT=cache_heapsort sorts/cache_heapsort354847286.c simpleMain.c -o cache_heapsort1294255848
	sim-cache -cache:dl1 dl1:256:32:1:l -cache:dl2 dl2:131072:32:1:l -cache:il1 il1:256:32:1:l -cache:il2 dl2 cache_heapsort1294255848
	sim-cache -cache:dl1 dl1:256:32:1:l -cache:dl2 dl2:65536:32:1:l -cache:il1 il1:256:32:1:l -cache:il2 dl2 cache_heapsort1294255848
	sim-cache -cache:dl1 dl1:1:32:256:l -cache:dl2 dl2:1:32:131072:l -cache:il1 il1:1:32:256:l -cache:il2 dl2 cache_heapsort1294255848
	sim-cache -cache:dl1 dl1:1:32:256:l -cache:dl2 dl2:1:32:65536:l -cache:il1 il1:1:32:256:l -cache:il2 dl2 cache_heapsort1294255848
	sim-bpred -bpred bimod -bpred:bimod 512 cache_heapsort1294255848
	sim-bpred -bpred bimod -bpred:bimod 1024 cache_heapsort1294255848
	sim-bpred -bpred bimod -bpred:bimod 2048 cache_heapsort1294255848
	sim-bpred -bpred 2lev -bpred:2lev 1 512 10 1 cache_heapsort1294255848
	sim-bpred -bpred 2lev -bpred:2lev 1 1024 10 1 cache_heapsort1294255848
	sim-bpred -bpred 2lev -bpred:2lev 1 2048 10 1 cache_heapsort1294255848
	sim-bpred -bpred 2lev -bpred:2lev 1 4096 10 1 cache_heapsort1294255848
