Tue Jun 14 06:07:54 2005
Run as: "./simple -c random.org0 -o 0 memory_tuned_heapsort"
-------------------------------------------------------------------------------------------------
sim-cache                                     4096 |         4096 |         4096 |         4096 |         8192 |         8192 |         8192 |         8192 |        16384 |        16384 |        16384 |        16384 |        32768 |        32768 |        32768 |        32768 |        65536 |        65536 |        65536 |        65536 |       131072 |       131072 |       131072 |       131072 |       262144 |       262144 |       262144 |       262144 |       524288 |       524288 |       524288 |       524288 |      1048576 |      1048576 |      1048576 |      1048576 |      2097152 |      2097152 |      2097152 |      2097152 |      4194304 |      4194304 |      4194304 |      4194304 |
-cache:dl1 dl1:256:32:1:l -cache:dl2 dl2:131072:32:1:l -cache:il1 il1:256:32:1:l -cache:il2 dl2
-cache:dl1 dl1:256:32:1:l -cache:dl2 dl2:65536:32:1:l -cache:il1 il1:256:32:1:l -cache:il2 dl2
-cache:dl1 dl1:1:32:256:l -cache:dl2 dl2:1:32:131072:l -cache:il1 il1:1:32:256:l -cache:il2 dl2
-cache:dl1 dl1:1:32:256:l -cache:dl2 dl2:1:32:65536:l -cache:il1 il1:1:32:256:l -cache:il2 dl2
-------------------------------------------------------------------------------------------------
sim_num_insn                               1018140 |      1018140 |      1018140 |      1018140 |      2188811 |      2188811 |      2188811 |      2188811 |      4728629 |      4728629 |      4728629 |      4728629 |     10001532 |     10001532 |     10001532 |     10001532 |     21297325 |     21297325 |     21297325 |     21297325 |     45456008 |     45456008 |     45456008 |     45456008 |     95379025 |     95379025 |     95379025 |     95379025 |    201123814 |    201123814 |    201123814 |    201123814 |    425199854 |    425199854 |    425199854 |    425199854 |    886171969 |    886171969 |    886171969 |    886171969 |   1855402163 |   1855402163 |   1855402163 |   1855402163 |
sim_num_refs                                280074 |       280074 |       280074 |       280074 |       600525 |       600525 |       600525 |       600525 |      1294714 |      1294714 |      1294714 |      1294714 |      2733653 |      2733653 |      2733653 |      2733653 |      5821114 |      5821114 |      5821114 |      5821114 |     12422037 |     12422037 |     12422037 |     12422037 |     26040144 |     26040144 |     26040144 |     26040144 |     54928238 |     54928238 |     54928238 |     54928238 |    116140089 |    116140089 |    116140089 |    116140089 |    241871905 |    241871905 |    241871905 |    241871905 |    506585914 |    506585914 |    506585914 |    506585914 |
sim_elapsed_time                                 1 |            1 |           10 |            5 |            1 |            1 |           15 |            8 |            1 |            2 |           26 |           14 |            3 |            2 |           48 |           25 |            7 |            6 |           90 |           45 |           13 |           13 |          165 |           79 |           27 |           27 |          285 |          114 |           57 |           57 |          399 |          146 |          120 |          120 |          478 |          215 |          251 |          252 |          617 |          361 |          528 |          527 |          918 |          661 |
sim_inst_rate                         1018140.0000 | 1018140.0000 |  101814.0000 |  203628.0000 | 2188811.0000 | 2188811.0000 |  145920.7333 |  273601.3750 | 4728629.0000 | 2364314.5000 |  181870.3462 |  337759.2143 | 3333844.0000 | 5000766.0000 |  208365.2500 |  400061.2800 | 3042475.0000 | 3549554.1667 |  236636.9444 |  473273.8889 | 3496616.0000 | 3496616.0000 |  275490.9576 |  575392.5063 | 3532556.4815 | 3532556.4815 |  334663.2456 |  836658.1140 | 3528487.9649 | 3528487.9649 |  504069.7093 | 1377560.3699 | 3543332.1167 | 3543332.1167 |  889539.4435 | 1977673.7395 | 3530565.6135 | 3516555.4325 | 1436259.2690 | 2454769.9972 | 3514019.2481 | 3520687.2163 | 2021135.2538 | 2806962.4251 |
il1.accesses                               1018140 |      1018140 |      1018140 |      1018140 |      2188811 |      2188811 |      2188811 |      2188811 |      4728629 |      4728629 |      4728629 |      4728629 |     10001532 |     10001532 |     10001532 |     10001532 |     21297325 |     21297325 |     21297325 |     21297325 |     45456008 |     45456008 |     45456008 |     45456008 |     95379025 |     95379025 |     95379025 |     95379025 |    201123814 |    201123814 |    201123814 |    201123814 |    425199854 |    425199854 |    425199854 |    425199854 |    886171969 |    886171969 |    886171969 |    886171969 |   1855402163 |   1855402163 |   1855402163 |   1855402163 |
il1.hits                                   1017605 |      1017605 |      1017700 |      1017700 |      2188243 |      2188243 |      2188355 |      2188355 |      4728059 |      4728059 |      4728168 |      4728168 |     10000960 |     10000960 |     10001074 |     10001074 |     21296753 |     21296753 |     21296867 |     21296867 |     45455436 |     45455436 |     45455550 |     45455550 |     95378453 |     95378453 |     95378567 |     95378567 |    201123242 |    201123242 |    201123356 |    201123356 |    425199244 |    425199244 |    425199355 |    425199355 |    886171359 |    886171359 |    886171470 |    886171470 |   1855401553 |   1855401553 |   1855401664 |   1855401664 |
il1.misses                                     535 |          535 |          440 |          440 |          568 |          568 |          456 |          456 |          570 |          570 |          461 |          461 |          572 |          572 |          458 |          458 |          572 |          572 |          458 |          458 |          572 |          572 |          458 |          458 |          572 |          572 |          458 |          458 |          572 |          572 |          458 |          458 |          610 |          610 |          499 |          499 |          610 |          610 |          499 |          499 |          610 |          610 |          499 |          499 |
il1.replacements                               320 |          320 |          184 |          184 |          346 |          346 |          200 |          200 |          348 |          348 |          205 |          205 |          350 |          350 |          202 |          202 |          350 |          350 |          202 |          202 |          350 |          350 |          202 |          202 |          350 |          350 |          202 |          202 |          350 |          350 |          202 |          202 |          390 |          390 |          243 |          243 |          390 |          390 |          243 |          243 |          390 |          390 |          243 |          243 |
il1.writebacks                                   0 |            0 |            0 |            0 |            0 |            0 |            0 |            0 |            0 |            0 |            0 |            0 |            0 |            0 |            0 |            0 |            0 |            0 |            0 |            0 |            0 |            0 |            0 |            0 |            0 |            0 |            0 |            0 |            0 |            0 |            0 |            0 |            0 |            0 |            0 |            0 |            0 |            0 |            0 |            0 |            0 |            0 |            0 |            0 |
il1.invalidations                                0 |            0 |            0 |            0 |            0 |            0 |            0 |            0 |            0 |            0 |            0 |            0 |            0 |            0 |            0 |            0 |            0 |            0 |            0 |            0 |            0 |            0 |            0 |            0 |            0 |            0 |            0 |            0 |            0 |            0 |            0 |            0 |            0 |            0 |            0 |            0 |            0 |            0 |            0 |            0 |            0 |            0 |            0 |            0 |
il1.miss_rate                               0.0005 |       0.0005 |       0.0004 |       0.0004 |       0.0003 |       0.0003 |       0.0002 |       0.0002 |       0.0001 |       0.0001 |       0.0001 |       0.0001 |       0.0001 |       0.0001 |       0.0000 |       0.0000 |       0.0000 |       0.0000 |       0.0000 |       0.0000 |       0.0000 |       0.0000 |       0.0000 |       0.0000 |       0.0000 |       0.0000 |       0.0000 |       0.0000 |       0.0000 |       0.0000 |       0.0000 |       0.0000 |       0.0000 |       0.0000 |       0.0000 |       0.0000 |       0.0000 |       0.0000 |       0.0000 |       0.0000 |       0.0000 |       0.0000 |       0.0000 |       0.0000 |
il1.repl_rate                               0.0003 |       0.0003 |       0.0002 |       0.0002 |       0.0002 |       0.0002 |       0.0001 |       0.0001 |       0.0001 |       0.0001 |       0.0000 |       0.0000 |       0.0000 |       0.0000 |       0.0000 |       0.0000 |       0.0000 |       0.0000 |       0.0000 |       0.0000 |       0.0000 |       0.0000 |       0.0000 |       0.0000 |       0.0000 |       0.0000 |       0.0000 |       0.0000 |       0.0000 |       0.0000 |       0.0000 |       0.0000 |       0.0000 |       0.0000 |       0.0000 |       0.0000 |       0.0000 |       0.0000 |       0.0000 |       0.0000 |       0.0000 |       0.0000 |       0.0000 |       0.0000 |
il1.wb_rate                                 0.0000 |       0.0000 |       0.0000 |       0.0000 |       0.0000 |       0.0000 |       0.0000 |       0.0000 |       0.0000 |       0.0000 |       0.0000 |       0.0000 |       0.0000 |       0.0000 |       0.0000 |       0.0000 |       0.0000 |       0.0000 |       0.0000 |       0.0000 |       0.0000 |       0.0000 |       0.0000 |       0.0000 |       0.0000 |       0.0000 |       0.0000 |       0.0000 |       0.0000 |       0.0000 |       0.0000 |       0.0000 |       0.0000 |       0.0000 |       0.0000 |       0.0000 |       0.0000 |       0.0000 |       0.0000 |       0.0000 |       0.0000 |       0.0000 |       0.0000 |       0.0000 |
il1.inv_rate                                0.0000 |       0.0000 |       0.0000 |       0.0000 |       0.0000 |       0.0000 |       0.0000 |       0.0000 |       0.0000 |       0.0000 |       0.0000 |       0.0000 |       0.0000 |       0.0000 |       0.0000 |       0.0000 |       0.0000 |       0.0000 |       0.0000 |       0.0000 |       0.0000 |       0.0000 |       0.0000 |       0.0000 |       0.0000 |       0.0000 |       0.0000 |       0.0000 |       0.0000 |       0.0000 |       0.0000 |       0.0000 |       0.0000 |       0.0000 |       0.0000 |       0.0000 |       0.0000 |       0.0000 |       0.0000 |       0.0000 |       0.0000 |       0.0000 |       0.0000 |       0.0000 |
dl1.accesses                                296532 |       296532 |       296532 |       296532 |       633367 |       633367 |       633367 |       633367 |      1360324 |      1360324 |      1360324 |      1360324 |      2864799 |      2864799 |      2864799 |      2864799 |      6083332 |      6083332 |      6083332 |      6083332 |     12946399 |     12946399 |     12946399 |     12946399 |     27088794 |     27088794 |     27088794 |     27088794 |     57025464 |     57025464 |     57025464 |     57025464 |    120334467 |    120334467 |    120334467 |    120334467 |    250260587 |    250260587 |    250260587 |    250260587 |    523363204 |    523363204 |    523363204 |    523363204 |
dl1.hits                                    291939 |       291939 |       292534 |       292534 |       621592 |       621592 |       623084 |       623084 |      1330768 |      1330768 |      1333801 |      1333801 |      2791964 |      2791964 |      2799323 |      2799323 |      5909838 |      5909838 |      5926110 |      5926110 |     12549282 |     12549282 |     12581123 |     12581123 |     26183877 |     26183877 |     26255704 |     26255704 |     55004378 |     55004378 |     55155108 |     55155108 |    115895065 |    115895065 |    116201203 |    116201203 |    240540206 |    240540206 |    241194524 |    241194524 |    502311820 |    502311820 |    503671495 |    503671495 |
dl1.misses                                    4593 |         4593 |         3998 |         3998 |        11775 |        11775 |        10283 |        10283 |        29556 |        29556 |        26523 |        26523 |        72835 |        72835 |        65476 |        65476 |       173494 |       173494 |       157222 |       157222 |       397117 |       397117 |       365276 |       365276 |       904917 |       904917 |       833090 |       833090 |      2021086 |      2021086 |      1870356 |      1870356 |      4439402 |      4439402 |      4133264 |      4133264 |      9720381 |      9720381 |      9066063 |      9066063 |     21051384 |     21051384 |     19691709 |     19691709 |
dl1.replacements                              4337 |         4337 |         3742 |         3742 |        11519 |        11519 |        10027 |        10027 |        29300 |        29300 |        26267 |        26267 |        72579 |        72579 |        65220 |        65220 |       173238 |       173238 |       156966 |       156966 |       396861 |       396861 |       365020 |       365020 |       904661 |       904661 |       832834 |       832834 |      2020830 |      2020830 |      1870100 |      1870100 |      4439146 |      4439146 |      4133008 |      4133008 |      9720125 |      9720125 |      9065807 |      9065807 |     21051128 |     21051128 |     19691453 |     19691453 |
dl1.writebacks                                3699 |         3699 |         3174 |         3174 |        10119 |        10119 |         8766 |         8766 |        26315 |        26315 |        23619 |        23619 |        66284 |        66284 |        59703 |        59703 |       160082 |       160082 |       145659 |       145659 |       370097 |       370097 |       342058 |       342058 |       850247 |       850247 |       786798 |       786798 |      1909456 |      1909456 |      1777276 |      1777276 |      4211942 |      4211942 |      3947065 |      3947065 |      9260965 |      9260965 |      8693282 |      8693282 |     20122552 |     20122552 |     18946750 |     18946750 |
dl1.invalidations                                0 |            0 |            0 |            0 |            0 |            0 |            0 |            0 |            0 |            0 |            0 |            0 |            0 |            0 |            0 |            0 |            0 |            0 |            0 |            0 |            0 |            0 |            0 |            0 |            0 |            0 |            0 |            0 |            0 |            0 |            0 |            0 |            0 |            0 |            0 |            0 |            0 |            0 |            0 |            0 |            0 |            0 |            0 |            0 |
dl1.miss_rate                               0.0155 |       0.0155 |       0.0135 |       0.0135 |       0.0186 |       0.0186 |       0.0162 |       0.0162 |       0.0217 |       0.0217 |       0.0195 |       0.0195 |       0.0254 |       0.0254 |       0.0229 |       0.0229 |       0.0285 |       0.0285 |       0.0258 |       0.0258 |       0.0307 |       0.0307 |       0.0282 |       0.0282 |       0.0334 |       0.0334 |       0.0308 |       0.0308 |       0.0354 |       0.0354 |       0.0328 |       0.0328 |       0.0369 |       0.0369 |       0.0343 |       0.0343 |       0.0388 |       0.0388 |       0.0362 |       0.0362 |       0.0402 |       0.0402 |       0.0376 |       0.0376 |
dl1.repl_rate                               0.0146 |       0.0146 |       0.0126 |       0.0126 |       0.0182 |       0.0182 |       0.0158 |       0.0158 |       0.0215 |       0.0215 |       0.0193 |       0.0193 |       0.0253 |       0.0253 |       0.0228 |       0.0228 |       0.0285 |       0.0285 |       0.0258 |       0.0258 |       0.0307 |       0.0307 |       0.0282 |       0.0282 |       0.0334 |       0.0334 |       0.0307 |       0.0307 |       0.0354 |       0.0354 |       0.0328 |       0.0328 |       0.0369 |       0.0369 |       0.0343 |       0.0343 |       0.0388 |       0.0388 |       0.0362 |       0.0362 |       0.0402 |       0.0402 |       0.0376 |       0.0376 |
dl1.wb_rate                                 0.0125 |       0.0125 |       0.0107 |       0.0107 |       0.0160 |       0.0160 |       0.0138 |       0.0138 |       0.0193 |       0.0193 |       0.0174 |       0.0174 |       0.0231 |       0.0231 |       0.0208 |       0.0208 |       0.0263 |       0.0263 |       0.0239 |       0.0239 |       0.0286 |       0.0286 |       0.0264 |       0.0264 |       0.0314 |       0.0314 |       0.0290 |       0.0290 |       0.0335 |       0.0335 |       0.0312 |       0.0312 |       0.0350 |       0.0350 |       0.0328 |       0.0328 |       0.0370 |       0.0370 |       0.0347 |       0.0347 |       0.0384 |       0.0384 |       0.0362 |       0.0362 |
dl1.inv_rate                                0.0000 |       0.0000 |       0.0000 |       0.0000 |       0.0000 |       0.0000 |       0.0000 |       0.0000 |       0.0000 |       0.0000 |       0.0000 |       0.0000 |       0.0000 |       0.0000 |       0.0000 |       0.0000 |       0.0000 |       0.0000 |       0.0000 |       0.0000 |       0.0000 |       0.0000 |       0.0000 |       0.0000 |       0.0000 |       0.0000 |       0.0000 |       0.0000 |       0.0000 |       0.0000 |       0.0000 |       0.0000 |       0.0000 |       0.0000 |       0.0000 |       0.0000 |       0.0000 |       0.0000 |       0.0000 |       0.0000 |       0.0000 |       0.0000 |       0.0000 |       0.0000 |
dl2.accesses                                  8827 |         8827 |         7612 |         7612 |        22462 |        22462 |        19505 |        19505 |        56441 |        56441 |        50603 |        50603 |       139691 |       139691 |       125637 |       125637 |       334148 |       334148 |       303339 |       303339 |       767786 |       767786 |       707792 |       707792 |      1755736 |      1755736 |      1620346 |      1620346 |      3931114 |      3931114 |      3648090 |      3648090 |      8651954 |      8651954 |      8080828 |      8080828 |     18981956 |     18981956 |     17759844 |     17759844 |     41174546 |     41174546 |     38638958 |     38638958 |
dl2.hits                                      6915 |         6915 |         5745 |         5745 |        19530 |        19530 |        16624 |        16624 |        51447 |        51447 |        45670 |        45670 |       130605 |       130605 |       116610 |       116610 |       316870 |       316870 |       286120 |       286120 |       734120 |       734120 |       674189 |       674189 |      1689304 |      1686793 |      1553975 |      1530504 |      3796637 |      3574975 |      3474033 |      3323442 |      7937888 |      7665895 |      7431607 |      7179152 |     17008697 |     16249209 |     15956896 |     15244095 |     35708472 |     34185345 |     33609592 |     31977699 |
dl2.misses                                    1912 |         1912 |         1867 |         1867 |         2932 |         2932 |         2881 |         2881 |         4994 |         4994 |         4933 |         4933 |         9086 |         9086 |         9027 |         9027 |        17278 |        17278 |        17219 |        17219 |        33666 |        33666 |        33603 |        33603 |        66432 |        68943 |        66371 |        89842 |       134477 |       356139 |       174057 |       324648 |       714066 |       986059 |       649221 |       901676 |      1973259 |      2732747 |      1802948 |      2515749 |      5466074 |      6989201 |      5029366 |      6661259 |
dl2.replacements                               269 |          269 |            0 |            0 |          263 |          263 |            0 |            0 |          303 |          303 |            0 |            0 |          298 |          298 |            0 |            0 |          298 |          298 |            0 |            0 |          302 |          302 |            0 |            0 |          300 |         4486 |            0 |        24306 |         4484 |       290603 |        42985 |       259112 |       582994 |       920523 |       518149 |       836140 |      1842187 |      2667211 |      1671876 |      2450213 |      5335002 |      6923665 |      4898294 |      6595723 |
dl2.writebacks                                 146 |          146 |            0 |            0 |          139 |          139 |            0 |            0 |          171 |          171 |            0 |            0 |          166 |          166 |            0 |            0 |          166 |          166 |            0 |            0 |          166 |          166 |            0 |            0 |          166 |         4352 |            0 |        23569 |         4352 |       227003 |        42248 |       192801 |       455119 |       779886 |       385767 |       694009 |      1561410 |      2357892 |      1387677 |      2136590 |      4717132 |      6255349 |      4272411 |      5923243 |
dl2.invalidations                                0 |            0 |            0 |            0 |            0 |            0 |            0 |            0 |            0 |            0 |            0 |            0 |            0 |            0 |            0 |            0 |            0 |            0 |            0 |            0 |            0 |            0 |            0 |            0 |            0 |            0 |            0 |            0 |            0 |            0 |            0 |            0 |            0 |            0 |            0 |            0 |            0 |            0 |            0 |            0 |            0 |            0 |            0 |            0 |
dl2.miss_rate                               0.2166 |       0.2166 |       0.2453 |       0.2453 |       0.1305 |       0.1305 |       0.1477 |       0.1477 |       0.0885 |       0.0885 |       0.0975 |       0.0975 |       0.0650 |       0.0650 |       0.0718 |       0.0718 |       0.0517 |       0.0517 |       0.0568 |       0.0568 |       0.0438 |       0.0438 |       0.0475 |       0.0475 |       0.0378 |       0.0393 |       0.0410 |       0.0554 |       0.0342 |       0.0906 |       0.0477 |       0.0890 |       0.0825 |       0.1140 |       0.0803 |       0.1116 |       0.1040 |       0.1440 |       0.1015 |       0.1417 |       0.1328 |       0.1697 |       0.1302 |       0.1724 |
dl2.repl_rate                               0.0305 |       0.0305 |       0.0000 |       0.0000 |       0.0117 |       0.0117 |       0.0000 |       0.0000 |       0.0054 |       0.0054 |       0.0000 |       0.0000 |       0.0021 |       0.0021 |       0.0000 |       0.0000 |       0.0009 |       0.0009 |       0.0000 |       0.0000 |       0.0004 |       0.0004 |       0.0000 |       0.0000 |       0.0002 |       0.0026 |       0.0000 |       0.0150 |       0.0011 |       0.0739 |       0.0118 |       0.0710 |       0.0674 |       0.1064 |       0.0641 |       0.1035 |       0.0970 |       0.1405 |       0.0941 |       0.1380 |       0.1296 |       0.1682 |       0.1268 |       0.1707 |
dl2.wb_rate                                 0.0165 |       0.0165 |       0.0000 |       0.0000 |       0.0062 |       0.0062 |       0.0000 |       0.0000 |       0.0030 |       0.0030 |       0.0000 |       0.0000 |       0.0012 |       0.0012 |       0.0000 |       0.0000 |       0.0005 |       0.0005 |       0.0000 |       0.0000 |       0.0002 |       0.0002 |       0.0000 |       0.0000 |       0.0001 |       0.0025 |       0.0000 |       0.0145 |       0.0011 |       0.0577 |       0.0116 |       0.0528 |       0.0526 |       0.0901 |       0.0477 |       0.0859 |       0.0823 |       0.1242 |       0.0781 |       0.1203 |       0.1146 |       0.1519 |       0.1106 |       0.1533 |
dl2.inv_rate                                0.0000 |       0.0000 |       0.0000 |       0.0000 |       0.0000 |       0.0000 |       0.0000 |       0.0000 |       0.0000 |       0.0000 |       0.0000 |       0.0000 |       0.0000 |       0.0000 |       0.0000 |       0.0000 |       0.0000 |       0.0000 |       0.0000 |       0.0000 |       0.0000 |       0.0000 |       0.0000 |       0.0000 |       0.0000 |       0.0000 |       0.0000 |       0.0000 |       0.0000 |       0.0000 |       0.0000 |       0.0000 |       0.0000 |       0.0000 |       0.0000 |       0.0000 |       0.0000 |       0.0000 |       0.0000 |       0.0000 |       0.0000 |       0.0000 |       0.0000 |       0.0000 |
itlb.accesses                              1018140 |      1018140 |      1018140 |      1018140 |      2188811 |      2188811 |      2188811 |      2188811 |      4728629 |      4728629 |      4728629 |      4728629 |     10001532 |     10001532 |     10001532 |     10001532 |     21297325 |     21297325 |     21297325 |     21297325 |     45456008 |     45456008 |     45456008 |     45456008 |     95379025 |     95379025 |     95379025 |     95379025 |    201123814 |    201123814 |    201123814 |    201123814 |    425199854 |    425199854 |    425199854 |    425199854 |    886171969 |    886171969 |    886171969 |    886171969 |   1855402163 |   1855402163 |   1855402163 |   1855402163 |
itlb.hits                                  1018130 |      1018130 |      1018130 |      1018130 |      2188801 |      2188801 |      2188801 |      2188801 |      4728619 |      4728619 |      4728619 |      4728619 |     10001522 |     10001522 |     10001522 |     10001522 |     21297315 |     21297315 |     21297315 |     21297315 |     45455998 |     45455998 |     45455998 |     45455998 |     95379015 |     95379015 |     95379015 |     95379015 |    201123804 |    201123804 |    201123804 |    201123804 |    425199844 |    425199844 |    425199844 |    425199844 |    886171959 |    886171959 |    886171959 |    886171959 |   1855402153 |   1855402153 |   1855402153 |   1855402153 |
itlb.misses                                     10 |           10 |           10 |           10 |           10 |           10 |           10 |           10 |           10 |           10 |           10 |           10 |           10 |           10 |           10 |           10 |           10 |           10 |           10 |           10 |           10 |           10 |           10 |           10 |           10 |           10 |           10 |           10 |           10 |           10 |           10 |           10 |           10 |           10 |           10 |           10 |           10 |           10 |           10 |           10 |           10 |           10 |           10 |           10 |
itlb.replacements                                0 |            0 |            0 |            0 |            0 |            0 |            0 |            0 |            0 |            0 |            0 |            0 |            0 |            0 |            0 |            0 |            0 |            0 |            0 |            0 |            0 |            0 |            0 |            0 |            0 |            0 |            0 |            0 |            0 |            0 |            0 |            0 |            0 |            0 |            0 |            0 |            0 |            0 |            0 |            0 |            0 |            0 |            0 |            0 |
itlb.writebacks                                  0 |            0 |            0 |            0 |            0 |            0 |            0 |            0 |            0 |            0 |            0 |            0 |            0 |            0 |            0 |            0 |            0 |            0 |            0 |            0 |            0 |            0 |            0 |            0 |            0 |            0 |            0 |            0 |            0 |            0 |            0 |            0 |            0 |            0 |            0 |            0 |            0 |            0 |            0 |            0 |            0 |            0 |            0 |            0 |
itlb.invalidations                               0 |            0 |            0 |            0 |            0 |            0 |            0 |            0 |            0 |            0 |            0 |            0 |            0 |            0 |            0 |            0 |            0 |            0 |            0 |            0 |            0 |            0 |            0 |            0 |            0 |            0 |            0 |            0 |            0 |            0 |            0 |            0 |            0 |            0 |            0 |            0 |            0 |            0 |            0 |            0 |            0 |            0 |            0 |            0 |
itlb.miss_rate                              0.0000 |       0.0000 |       0.0000 |       0.0000 |       0.0000 |       0.0000 |       0.0000 |       0.0000 |       0.0000 |       0.0000 |       0.0000 |       0.0000 |       0.0000 |       0.0000 |       0.0000 |       0.0000 |       0.0000 |       0.0000 |       0.0000 |       0.0000 |       0.0000 |       0.0000 |       0.0000 |       0.0000 |       0.0000 |       0.0000 |       0.0000 |       0.0000 |       0.0000 |       0.0000 |       0.0000 |       0.0000 |       0.0000 |       0.0000 |       0.0000 |       0.0000 |       0.0000 |       0.0000 |       0.0000 |       0.0000 |       0.0000 |       0.0000 |       0.0000 |       0.0000 |
itlb.repl_rate                              0.0000 |       0.0000 |       0.0000 |       0.0000 |       0.0000 |       0.0000 |       0.0000 |       0.0000 |       0.0000 |       0.0000 |       0.0000 |       0.0000 |       0.0000 |       0.0000 |       0.0000 |       0.0000 |       0.0000 |       0.0000 |       0.0000 |       0.0000 |       0.0000 |       0.0000 |       0.0000 |       0.0000 |       0.0000 |       0.0000 |       0.0000 |       0.0000 |       0.0000 |       0.0000 |       0.0000 |       0.0000 |       0.0000 |       0.0000 |       0.0000 |       0.0000 |       0.0000 |       0.0000 |       0.0000 |       0.0000 |       0.0000 |       0.0000 |       0.0000 |       0.0000 |
itlb.wb_rate                                0.0000 |       0.0000 |       0.0000 |       0.0000 |       0.0000 |       0.0000 |       0.0000 |       0.0000 |       0.0000 |       0.0000 |       0.0000 |       0.0000 |       0.0000 |       0.0000 |       0.0000 |       0.0000 |       0.0000 |       0.0000 |       0.0000 |       0.0000 |       0.0000 |       0.0000 |       0.0000 |       0.0000 |       0.0000 |       0.0000 |       0.0000 |       0.0000 |       0.0000 |       0.0000 |       0.0000 |       0.0000 |       0.0000 |       0.0000 |       0.0000 |       0.0000 |       0.0000 |       0.0000 |       0.0000 |       0.0000 |       0.0000 |       0.0000 |       0.0000 |       0.0000 |
itlb.inv_rate                               0.0000 |       0.0000 |       0.0000 |       0.0000 |       0.0000 |       0.0000 |       0.0000 |       0.0000 |       0.0000 |       0.0000 |       0.0000 |       0.0000 |       0.0000 |       0.0000 |       0.0000 |       0.0000 |       0.0000 |       0.0000 |       0.0000 |       0.0000 |       0.0000 |       0.0000 |       0.0000 |       0.0000 |       0.0000 |       0.0000 |       0.0000 |       0.0000 |       0.0000 |       0.0000 |       0.0000 |       0.0000 |       0.0000 |       0.0000 |       0.0000 |       0.0000 |       0.0000 |       0.0000 |       0.0000 |       0.0000 |       0.0000 |       0.0000 |       0.0000 |       0.0000 |
dtlb.accesses                               296532 |       296532 |       296532 |       296532 |       633367 |       633367 |       633367 |       633367 |      1360324 |      1360324 |      1360324 |      1360324 |      2864799 |      2864799 |      2864799 |      2864799 |      6083332 |      6083332 |      6083332 |      6083332 |     12946399 |     12946399 |     12946399 |     12946399 |     27088794 |     27088794 |     27088794 |     27088794 |     57025464 |     57025464 |     57025464 |     57025464 |    120334467 |    120334467 |    120334467 |    120334467 |    250260587 |    250260587 |    250260587 |    250260587 |    523363204 |    523363204 |    523363204 |    523363204 |
dtlb.hits                                   296516 |       296516 |       296516 |       296516 |       633343 |       633343 |       633343 |       633343 |      1360284 |      1360284 |      1360284 |      1360284 |      2864727 |      2864727 |      2864727 |      2864727 |      6083186 |      6083186 |      6083186 |      6083186 |     12945613 |     12945613 |     12945613 |     12945613 |     27042793 |     27042793 |     27042793 |     27042793 |     56767036 |     56767036 |     56767036 |     56767036 |    119410325 |    119410325 |    119410325 |    119410325 |    247571502 |    247571502 |    247571502 |    247571502 |    516259336 |    516259336 |    516259336 |    516259336 |
dtlb.misses                                     16 |           16 |           16 |           16 |           24 |           24 |           24 |           24 |           40 |           40 |           40 |           40 |           72 |           72 |           72 |           72 |          146 |          146 |          146 |          146 |          786 |          786 |          786 |          786 |        46001 |        46001 |        46001 |        46001 |       258428 |       258428 |       258428 |       258428 |       924142 |       924142 |       924142 |       924142 |      2689085 |      2689085 |      2689085 |      2689085 |      7103868 |      7103868 |      7103868 |      7103868 |
dtlb.replacements                                0 |            0 |            0 |            0 |            0 |            0 |            0 |            0 |            0 |            0 |            0 |            0 |            0 |            0 |            0 |            0 |           18 |           18 |           18 |           18 |          658 |          658 |          658 |          658 |        45873 |        45873 |        45873 |        45873 |       258300 |       258300 |       258300 |       258300 |       924014 |       924014 |       924014 |       924014 |      2688957 |      2688957 |      2688957 |      2688957 |      7103740 |      7103740 |      7103740 |      7103740 |
dtlb.writebacks                                  0 |            0 |            0 |            0 |            0 |            0 |            0 |            0 |            0 |            0 |            0 |            0 |            0 |            0 |            0 |            0 |           16 |           16 |           16 |           16 |          535 |          535 |          535 |          535 |        44451 |        44451 |        44451 |        44451 |       248743 |       248743 |       248743 |       248743 |       891774 |       891774 |       891774 |       891774 |      2605178 |      2605178 |      2605178 |      2605178 |      6912492 |      6912492 |      6912492 |      6912492 |
dtlb.invalidations                               0 |            0 |            0 |            0 |            0 |            0 |            0 |            0 |            0 |            0 |            0 |            0 |            0 |            0 |            0 |            0 |            0 |            0 |            0 |            0 |            0 |            0 |            0 |            0 |            0 |            0 |            0 |            0 |            0 |            0 |            0 |            0 |            0 |            0 |            0 |            0 |            0 |            0 |            0 |            0 |            0 |            0 |            0 |            0 |
dtlb.miss_rate                              0.0001 |       0.0001 |       0.0001 |       0.0001 |       0.0000 |       0.0000 |       0.0000 |       0.0000 |       0.0000 |       0.0000 |       0.0000 |       0.0000 |       0.0000 |       0.0000 |       0.0000 |       0.0000 |       0.0000 |       0.0000 |       0.0000 |       0.0000 |       0.0001 |       0.0001 |       0.0001 |       0.0001 |       0.0017 |       0.0017 |       0.0017 |       0.0017 |       0.0045 |       0.0045 |       0.0045 |       0.0045 |       0.0077 |       0.0077 |       0.0077 |       0.0077 |       0.0107 |       0.0107 |       0.0107 |       0.0107 |       0.0136 |       0.0136 |       0.0136 |       0.0136 |
dtlb.repl_rate                              0.0000 |       0.0000 |       0.0000 |       0.0000 |       0.0000 |       0.0000 |       0.0000 |       0.0000 |       0.0000 |       0.0000 |       0.0000 |       0.0000 |       0.0000 |       0.0000 |       0.0000 |       0.0000 |       0.0000 |       0.0000 |       0.0000 |       0.0000 |       0.0001 |       0.0001 |       0.0001 |       0.0001 |       0.0017 |       0.0017 |       0.0017 |       0.0017 |       0.0045 |       0.0045 |       0.0045 |       0.0045 |       0.0077 |       0.0077 |       0.0077 |       0.0077 |       0.0107 |       0.0107 |       0.0107 |       0.0107 |       0.0136 |       0.0136 |       0.0136 |       0.0136 |
dtlb.wb_rate                                0.0000 |       0.0000 |       0.0000 |       0.0000 |       0.0000 |       0.0000 |       0.0000 |       0.0000 |       0.0000 |       0.0000 |       0.0000 |       0.0000 |       0.0000 |       0.0000 |       0.0000 |       0.0000 |       0.0000 |       0.0000 |       0.0000 |       0.0000 |       0.0000 |       0.0000 |       0.0000 |       0.0000 |       0.0016 |       0.0016 |       0.0016 |       0.0016 |       0.0044 |       0.0044 |       0.0044 |       0.0044 |       0.0074 |       0.0074 |       0.0074 |       0.0074 |       0.0104 |       0.0104 |       0.0104 |       0.0104 |       0.0132 |       0.0132 |       0.0132 |       0.0132 |
dtlb.inv_rate                               0.0000 |       0.0000 |       0.0000 |       0.0000 |       0.0000 |       0.0000 |       0.0000 |       0.0000 |       0.0000 |       0.0000 |       0.0000 |       0.0000 |       0.0000 |       0.0000 |       0.0000 |       0.0000 |       0.0000 |       0.0000 |       0.0000 |       0.0000 |       0.0000 |       0.0000 |       0.0000 |       0.0000 |       0.0000 |       0.0000 |       0.0000 |       0.0000 |       0.0000 |       0.0000 |       0.0000 |       0.0000 |       0.0000 |       0.0000 |       0.0000 |       0.0000 |       0.0000 |       0.0000 |       0.0000 |       0.0000 |       0.0000 |       0.0000 |       0.0000 |       0.0000 |
ld_text_base                            0x00400000 |   0x00400000 |   0x00400000 |   0x00400000 |   0x00400000 |   0x00400000 |   0x00400000 |   0x00400000 |   0x00400000 |   0x00400000 |   0x00400000 |   0x00400000 |   0x00400000 |   0x00400000 |   0x00400000 |   0x00400000 |   0x00400000 |   0x00400000 |   0x00400000 |   0x00400000 |   0x00400000 |   0x00400000 |   0x00400000 |   0x00400000 |   0x00400000 |   0x00400000 |   0x00400000 |   0x00400000 |   0x00400000 |   0x00400000 |   0x00400000 |   0x00400000 |   0x00400000 |   0x00400000 |   0x00400000 |   0x00400000 |   0x00400000 |   0x00400000 |   0x00400000 |   0x00400000 |   0x00400000 |   0x00400000 |   0x00400000 |   0x00400000 |
ld_text_size                                 74512 |        74512 |        74512 |        74512 |        74544 |        74544 |        74544 |        74544 |        74560 |        74560 |        74560 |        74560 |        74576 |        74576 |        74576 |        74576 |        74576 |        74576 |        74576 |        74576 |        74576 |        74576 |        74576 |        74576 |        74576 |        74576 |        74576 |        74576 |        74576 |        74576 |        74576 |        74576 |        74576 |        74576 |        74576 |        74576 |        74576 |        74576 |        74576 |        74576 |        74576 |        74576 |        74576 |        74576 |
ld_data_base                            0x10000000 |   0x10000000 |   0x10000000 |   0x10000000 |   0x10000000 |   0x10000000 |   0x10000000 |   0x10000000 |   0x10000000 |   0x10000000 |   0x10000000 |   0x10000000 |   0x10000000 |   0x10000000 |   0x10000000 |   0x10000000 |   0x10000000 |   0x10000000 |   0x10000000 |   0x10000000 |   0x10000000 |   0x10000000 |   0x10000000 |   0x10000000 |   0x10000000 |   0x10000000 |   0x10000000 |   0x10000000 |   0x10000000 |   0x10000000 |   0x10000000 |   0x10000000 |   0x10000000 |   0x10000000 |   0x10000000 |   0x10000000 |   0x10000000 |   0x10000000 |   0x10000000 |   0x10000000 |   0x10000000 |   0x10000000 |   0x10000000 |   0x10000000 |
ld_data_size                                  8192 |         8192 |         8192 |         8192 |         8192 |         8192 |         8192 |         8192 |         8192 |         8192 |         8192 |         8192 |         8192 |         8192 |         8192 |         8192 |         8192 |         8192 |         8192 |         8192 |         8192 |         8192 |         8192 |         8192 |         8192 |         8192 |         8192 |         8192 |         8192 |         8192 |         8192 |         8192 |         8192 |         8192 |         8192 |         8192 |         8192 |         8192 |         8192 |         8192 |         8192 |         8192 |         8192 |         8192 |
ld_stack_base                           0x7fffc000 |   0x7fffc000 |   0x7fffc000 |   0x7fffc000 |   0x7fffc000 |   0x7fffc000 |   0x7fffc000 |   0x7fffc000 |   0x7fffc000 |   0x7fffc000 |   0x7fffc000 |   0x7fffc000 |   0x7fffc000 |   0x7fffc000 |   0x7fffc000 |   0x7fffc000 |   0x7fffc000 |   0x7fffc000 |   0x7fffc000 |   0x7fffc000 |   0x7fffc000 |   0x7fffc000 |   0x7fffc000 |   0x7fffc000 |   0x7fffc000 |   0x7fffc000 |   0x7fffc000 |   0x7fffc000 |   0x7fffc000 |   0x7fffc000 |   0x7fffc000 |   0x7fffc000 |   0x7fffc000 |   0x7fffc000 |   0x7fffc000 |   0x7fffc000 |   0x7fffc000 |   0x7fffc000 |   0x7fffc000 |   0x7fffc000 |   0x7fffc000 |   0x7fffc000 |   0x7fffc000 |   0x7fffc000 |
ld_stack_size                                16384 |        16384 |        16384 |        16384 |        16384 |        16384 |        16384 |        16384 |        16384 |        16384 |        16384 |        16384 |        16384 |        16384 |        16384 |        16384 |        16384 |        16384 |        16384 |        16384 |        16384 |        16384 |        16384 |        16384 |        16384 |        16384 |        16384 |        16384 |        16384 |        16384 |        16384 |        16384 |        16384 |        16384 |        16384 |        16384 |        16384 |        16384 |        16384 |        16384 |        16384 |        16384 |        16384 |        16384 |
ld_prog_entry                           0x00400140 |   0x00400140 |   0x00400140 |   0x00400140 |   0x00400140 |   0x00400140 |   0x00400140 |   0x00400140 |   0x00400140 |   0x00400140 |   0x00400140 |   0x00400140 |   0x00400140 |   0x00400140 |   0x00400140 |   0x00400140 |   0x00400140 |   0x00400140 |   0x00400140 |   0x00400140 |   0x00400140 |   0x00400140 |   0x00400140 |   0x00400140 |   0x00400140 |   0x00400140 |   0x00400140 |   0x00400140 |   0x00400140 |   0x00400140 |   0x00400140 |   0x00400140 |   0x00400140 |   0x00400140 |   0x00400140 |   0x00400140 |   0x00400140 |   0x00400140 |   0x00400140 |   0x00400140 |   0x00400140 |   0x00400140 |   0x00400140 |   0x00400140 |
ld_environ_base                         0x7fff8000 |   0x7fff8000 |   0x7fff8000 |   0x7fff8000 |   0x7fff8000 |   0x7fff8000 |   0x7fff8000 |   0x7fff8000 |   0x7fff8000 |   0x7fff8000 |   0x7fff8000 |   0x7fff8000 |   0x7fff8000 |   0x7fff8000 |   0x7fff8000 |   0x7fff8000 |   0x7fff8000 |   0x7fff8000 |   0x7fff8000 |   0x7fff8000 |   0x7fff8000 |   0x7fff8000 |   0x7fff8000 |   0x7fff8000 |   0x7fff8000 |   0x7fff8000 |   0x7fff8000 |   0x7fff8000 |   0x7fff8000 |   0x7fff8000 |   0x7fff8000 |   0x7fff8000 |   0x7fff8000 |   0x7fff8000 |   0x7fff8000 |   0x7fff8000 |   0x7fff8000 |   0x7fff8000 |   0x7fff8000 |   0x7fff8000 |   0x7fff8000 |   0x7fff8000 |   0x7fff8000 |   0x7fff8000 |
ld_target_big_endian                             0 |            0 |            0 |            0 |            0 |            0 |            0 |            0 |            0 |            0 |            0 |            0 |            0 |            0 |            0 |            0 |            0 |            0 |            0 |            0 |            0 |            0 |            0 |            0 |            0 |            0 |            0 |            0 |            0 |            0 |            0 |            0 |            0 |            0 |            0 |            0 |            0 |            0 |            0 |            0 |            0 |            0 |            0 |            0 |
mem.page_count                                  35 |           35 |           35 |           35 |           43 |           43 |           43 |           43 |           59 |           59 |           59 |           59 |           91 |           91 |           91 |           91 |          155 |          155 |          155 |          155 |          283 |          283 |          283 |          283 |          539 |          539 |          539 |          539 |         1051 |         1051 |         1051 |         1051 |         2081 |         2081 |         2081 |         2081 |         4135 |         4135 |         4135 |         4135 |         8243 |         8243 |         8243 |         8243 |
mem.page_mem                                  140k |         140k |         140k |         140k |         172k |         172k |         172k |         172k |         236k |         236k |         236k |         236k |         364k |         364k |         364k |         364k |         620k |         620k |         620k |         620k |        1132k |        1132k |        1132k |        1132k |        2156k |        2156k |        2156k |        2156k |        4204k |        4204k |        4204k |        4204k |        8324k |        8324k |        8324k |        8324k |       16540k |       16540k |       16540k |       16540k |       32972k |       32972k |       32972k |       32972k |
mem.ptab_misses                                 35 |           35 |           35 |           35 |           43 |           43 |           43 |           43 |           59 |           59 |           59 |           59 |           91 |           91 |           91 |           91 |          155 |          155 |          155 |          155 |          283 |          283 |          283 |          283 |          539 |          539 |          539 |          539 |         1051 |         1051 |         1051 |         1051 |         8998 |         8998 |         8998 |         8998 |        33110 |        33110 |        33110 |        33110 |        61876 |        61876 |        61876 |        61876 |
mem.ptab_accesses                          5127306 |      5127306 |      5127306 |      5127306 |     10483852 |     10483852 |     10483852 |     10483852 |     22097134 |     22097134 |     22097134 |     22097134 |     46197792 |     46197792 |     46197792 |     46197792 |     97818030 |     97818030 |     97818030 |     97818030 |    208178896 |    208178896 |    208178896 |    208178896 |    436155754 |    436155754 |    436155754 |    436155754 |    919008250 |    919008250 |    919008250 |    919008250 |   1941930416 |   1941930416 |   1941930416 |   1941930416 |   4045671116 |   4045671116 |   4045671116 |   4045671116 |   8468797126 |   8468797126 |   8468797126 |   8468797126 |
mem.ptab_miss_rate                          0.0000 |       0.0000 |       0.0000 |       0.0000 |       0.0000 |       0.0000 |       0.0000 |       0.0000 |       0.0000 |       0.0000 |       0.0000 |       0.0000 |       0.0000 |       0.0000 |       0.0000 |       0.0000 |       0.0000 |       0.0000 |       0.0000 |       0.0000 |       0.0000 |       0.0000 |       0.0000 |       0.0000 |       0.0000 |       0.0000 |       0.0000 |       0.0000 |       0.0000 |       0.0000 |       0.0000 |       0.0000 |       0.0000 |       0.0000 |       0.0000 |       0.0000 |       0.0000 |       0.0000 |       0.0000 |       0.0000 |       0.0000 |       0.0000 |       0.0000 |       0.0000 |
-------------------------------------------------------------------------------------------------
sim-bpred                                     4096 |         4096 |         4096 |         4096 |         4096 |         4096 |         4096 |         8192 |         8192 |         8192 |         8192 |         8192 |         8192 |         8192 |        16384 |        16384 |        16384 |        16384 |        16384 |        16384 |        16384 |        32768 |        32768 |        32768 |        32768 |        32768 |        32768 |        32768 |        65536 |        65536 |        65536 |        65536 |        65536 |        65536 |        65536 |       131072 |       131072 |       131072 |       131072 |       131072 |       131072 |       131072 |       262144 |       262144 |       262144 |       262144 |       262144 |       262144 |       262144 |       524288 |       524288 |       524288 |       524288 |       524288 |       524288 |       524288 |      1048576 |      1048576 |      1048576 |      1048576 |      1048576 |      1048576 |      1048576 |      2097152 |      2097152 |      2097152 |      2097152 |      2097152 |      2097152 |      2097152 |      4194304 |      4194304 |      4194304 |      4194304 |      4194304 |      4194304 |      4194304 |
-bpred bimod -bpred:bimod 512
-bpred bimod -bpred:bimod 1024
-bpred bimod -bpred:bimod 2048
-bpred 2lev -bpred:2lev 1 512 10 1
-bpred 2lev -bpred:2lev 1 1024 10 1
-bpred 2lev -bpred:2lev 1 2048 10 1
-bpred 2lev -bpred:2lev 1 4096 10 1
-------------------------------------------------------------------------------------------------
sim_num_insn                               1018140 |      1018140 |      1018140 |      1018140 |      1018140 |      1018140 |      1018140 |      2188811 |      2188811 |      2188811 |      2188811 |      2188811 |      2188811 |      2188811 |      4728629 |      4728629 |      4728629 |      4728629 |      4728629 |      4728629 |      4728629 |     10001532 |     10001532 |     10001532 |     10001532 |     10001532 |     10001532 |     10001532 |     21297325 |     21297325 |     21297325 |     21297325 |     21297325 |     21297325 |     21297325 |     45456008 |     45456008 |     45456008 |     45456008 |     45456008 |     45456008 |     45456008 |     95379025 |     95379025 |     95379025 |     95379025 |     95379025 |     95379025 |     95379025 |    201123814 |    201123814 |    201123814 |    201123814 |    201123814 |    201123814 |    201123814 |    425199854 |    425199854 |    425199854 |    425199854 |    425199854 |    425199854 |    425199854 |    886171969 |    886171969 |    886171969 |    886171969 |    886171969 |    886171969 |    886171969 |   1855402163 |   1855402163 |   1855402163 |   1855402163 |   1855402163 |   1855402163 |   1855402163 |
sim_num_refs                                280074 |       280074 |       280074 |       280074 |       280074 |       280074 |       280074 |       600525 |       600525 |       600525 |       600525 |       600525 |       600525 |       600525 |      1294714 |      1294714 |      1294714 |      1294714 |      1294714 |      1294714 |      1294714 |      2733653 |      2733653 |      2733653 |      2733653 |      2733653 |      2733653 |      2733653 |      5821114 |      5821114 |      5821114 |      5821114 |      5821114 |      5821114 |      5821114 |     12422037 |     12422037 |     12422037 |     12422037 |     12422037 |     12422037 |     12422037 |     26040144 |     26040144 |     26040144 |     26040144 |     26040144 |     26040144 |     26040144 |     54928238 |     54928238 |     54928238 |     54928238 |     54928238 |     54928238 |     54928238 |    116140089 |    116140089 |    116140089 |    116140089 |    116140089 |    116140089 |    116140089 |    241871905 |    241871905 |    241871905 |    241871905 |    241871905 |    241871905 |    241871905 |    506585914 |    506585914 |    506585914 |    506585914 |    506585914 |    506585914 |    506585914 |
sim_elapsed_time                                 1 |            1 |            1 |            1 |            1 |            1 |            1 |            1 |            1 |            1 |            1 |            1 |            1 |            1 |            1 |            1 |            1 |            1 |            1 |            1 |            1 |            1 |            1 |            2 |            1 |            1 |            2 |            1 |            3 |            3 |            2 |            3 |            3 |            3 |            3 |            6 |            6 |            6 |            6 |            6 |            6 |            6 |           12 |           13 |           13 |           13 |           13 |           13 |           13 |           27 |           26 |           27 |           27 |           27 |           27 |           27 |           56 |           56 |           56 |           58 |           57 |           57 |           58 |          117 |          116 |          118 |          120 |          119 |          120 |          119 |          241 |          241 |          241 |          247 |          246 |          246 |          246 |
sim_inst_rate                         1018140.0000 | 1018140.0000 | 1018140.0000 | 1018140.0000 | 1018140.0000 | 1018140.0000 | 1018140.0000 | 2188811.0000 | 2188811.0000 | 2188811.0000 | 2188811.0000 | 2188811.0000 | 2188811.0000 | 2188811.0000 | 4728629.0000 | 4728629.0000 | 4728629.0000 | 4728629.0000 | 4728629.0000 | 4728629.0000 | 4728629.0000 |10001532.0000 |10001532.0000 | 5000766.0000 |10001532.0000 |10001532.0000 | 5000766.0000 |10001532.0000 | 7099108.3333 | 7099108.3333 |10648662.5000 | 7099108.3333 | 7099108.3333 | 7099108.3333 | 7099108.3333 | 7576001.3333 | 7576001.3333 | 7576001.3333 | 7576001.3333 | 7576001.3333 | 7576001.3333 | 7576001.3333 | 7948252.0833 | 7336848.0769 | 7336848.0769 | 7336848.0769 | 7336848.0769 | 7336848.0769 | 7336848.0769 | 7449030.1481 | 7735531.3077 | 7449030.1481 | 7449030.1481 | 7449030.1481 | 7449030.1481 | 7449030.1481 | 7592854.5357 | 7592854.5357 | 7592854.5357 | 7331031.9655 | 7459646.5614 | 7459646.5614 | 7331031.9655 | 7574119.3932 | 7639413.5259 | 7509931.9407 | 7384766.4083 | 7446823.2689 | 7384766.4083 | 7446823.2689 | 7698764.1618 | 7698764.1618 | 7698764.1618 | 7511749.6478 | 7542285.2154 | 7542285.2154 | 7542285.2154 |
sim_num_branches                            172001 |       172001 |       172001 |       172001 |       172001 |       172001 |       172001 |       370667 |       370667 |       370667 |       370667 |       370667 |       370667 |       370667 |       801673 |       801673 |       801673 |       801673 |       801673 |       801673 |       801673 |      1694971 |      1694971 |      1694971 |      1694971 |      1694971 |      1694971 |      1694971 |      3612766 |      3612766 |      3612766 |      3612766 |      3612766 |      3612766 |      3612766 |      7714393 |      7714393 |      7714393 |      7714393 |      7714393 |      7714393 |      7714393 |     16178282 |     16178282 |     16178282 |     16178282 |     16178282 |     16178282 |     16178282 |     34137981 |     34137981 |     34137981 |     34137981 |     34137981 |     34137981 |     34137981 |     72199796 |     72199796 |     72199796 |     72199796 |     72199796 |     72199796 |     72199796 |    150398178 |    150398178 |    150398178 |    150398178 |    150398178 |    150398178 |    150398178 |    315077429 |    315077429 |    315077429 |    315077429 |    315077429 |    315077429 |    315077429 |
sim_IPB                                     5.9194 |       5.9194 |       5.9194 |       5.9194 |       5.9194 |       5.9194 |       5.9194 |       5.9051 |       5.9051 |       5.9051 |       5.9051 |       5.9051 |       5.9051 |       5.9051 |       5.8985 |       5.8985 |       5.8985 |       5.8985 |       5.8985 |       5.8985 |       5.8985 |       5.9007 |       5.9007 |       5.9007 |       5.9007 |       5.9007 |       5.9007 |       5.9007 |       5.8950 |       5.8950 |       5.8950 |       5.8950 |       5.8950 |       5.8950 |       5.8950 |       5.8924 |       5.8924 |       5.8924 |       5.8924 |       5.8924 |       5.8924 |       5.8924 |       5.8955 |       5.8955 |       5.8955 |       5.8955 |       5.8955 |       5.8955 |       5.8955 |       5.8915 |       5.8915 |       5.8915 |       5.8915 |       5.8915 |       5.8915 |       5.8915 |       5.8892 |       5.8892 |       5.8892 |       5.8892 |       5.8892 |       5.8892 |       5.8892 |       5.8922 |       5.8922 |       5.8922 |       5.8922 |       5.8922 |       5.8922 |       5.8922 |       5.8887 |       5.8887 |       5.8887 |       5.8887 |       5.8887 |       5.8887 |       5.8887 |
bpred_bimod.lookups                         172001 |       172001 |       172001 |xxxxxxxxxxxxx |xxxxxxxxxxxxx |xxxxxxxxxxxxx |xxxxxxxxxxxxx |       370667 |       370667 |       370667 |xxxxxxxxxxxxx |xxxxxxxxxxxxx |xxxxxxxxxxxxx |xxxxxxxxxxxxx |       801673 |       801673 |       801673 |xxxxxxxxxxxxx |xxxxxxxxxxxxx |xxxxxxxxxxxxx |xxxxxxxxxxxxx |      1694971 |      1694971 |      1694971 |xxxxxxxxxxxxx |xxxxxxxxxxxxx |xxxxxxxxxxxxx |xxxxxxxxxxxxx |      3612766 |      3612766 |      3612766 |xxxxxxxxxxxxx |xxxxxxxxxxxxx |xxxxxxxxxxxxx |xxxxxxxxxxxxx |      7714393 |      7714393 |      7714393 |xxxxxxxxxxxxx |xxxxxxxxxxxxx |xxxxxxxxxxxxx |xxxxxxxxxxxxx |     16178282 |     16178282 |     16178282 |xxxxxxxxxxxxx |xxxxxxxxxxxxx |xxxxxxxxxxxxx |xxxxxxxxxxxxx |     34137981 |     34137981 |     34137981 |xxxxxxxxxxxxx |xxxxxxxxxxxxx |xxxxxxxxxxxxx |xxxxxxxxxxxxx |     72199796 |     72199796 |     72199796 |xxxxxxxxxxxxx |xxxxxxxxxxxxx |xxxxxxxxxxxxx |xxxxxxxxxxxxx |    150398178 |    150398178 |    150398178 |xxxxxxxxxxxxx |xxxxxxxxxxxxx |xxxxxxxxxxxxx |xxxxxxxxxxxxx |    315077429 |    315077429 |    315077429 |
bpred_bimod.updates                         172001 |       172001 |       172001 |xxxxxxxxxxxxx |xxxxxxxxxxxxx |xxxxxxxxxxxxx |xxxxxxxxxxxxx |       370667 |       370667 |       370667 |xxxxxxxxxxxxx |xxxxxxxxxxxxx |xxxxxxxxxxxxx |xxxxxxxxxxxxx |       801673 |       801673 |       801673 |xxxxxxxxxxxxx |xxxxxxxxxxxxx |xxxxxxxxxxxxx |xxxxxxxxxxxxx |      1694971 |      1694971 |      1694971 |xxxxxxxxxxxxx |xxxxxxxxxxxxx |xxxxxxxxxxxxx |xxxxxxxxxxxxx |      3612766 |      3612766 |      3612766 |xxxxxxxxxxxxx |xxxxxxxxxxxxx |xxxxxxxxxxxxx |xxxxxxxxxxxxx |      7714393 |      7714393 |      7714393 |xxxxxxxxxxxxx |xxxxxxxxxxxxx |xxxxxxxxxxxxx |xxxxxxxxxxxxx |     16178282 |     16178282 |     16178282 |xxxxxxxxxxxxx |xxxxxxxxxxxxx |xxxxxxxxxxxxx |xxxxxxxxxxxxx |     34137981 |     34137981 |     34137981 |xxxxxxxxxxxxx |xxxxxxxxxxxxx |xxxxxxxxxxxxx |xxxxxxxxxxxxx |     72199796 |     72199796 |     72199796 |xxxxxxxxxxxxx |xxxxxxxxxxxxx |xxxxxxxxxxxxx |xxxxxxxxxxxxx |    150398178 |    150398178 |    150398178 |xxxxxxxxxxxxx |xxxxxxxxxxxxx |xxxxxxxxxxxxx |xxxxxxxxxxxxx |    315077429 |    315077429 |    315077429 |
bpred_bimod.addr_hits                       140537 |       140542 |       140543 |xxxxxxxxxxxxx |xxxxxxxxxxxxx |xxxxxxxxxxxxx |xxxxxxxxxxxxx |       303685 |       303692 |       303692 |xxxxxxxxxxxxx |xxxxxxxxxxxxx |xxxxxxxxxxxxx |xxxxxxxxxxxxx |       658842 |       658849 |       658852 |xxxxxxxxxxxxx |xxxxxxxxxxxxx |xxxxxxxxxxxxx |xxxxxxxxxxxxx |      1383817 |      1383822 |      1383822 |xxxxxxxxxxxxx |xxxxxxxxxxxxx |xxxxxxxxxxxxx |xxxxxxxxxxxxx |      2947958 |      2947963 |      2947963 |xxxxxxxxxxxxx |xxxxxxxxxxxxx |xxxxxxxxxxxxx |xxxxxxxxxxxxx |      6312674 |      6312680 |      6312679 |xxxxxxxxxxxxx |xxxxxxxxxxxxx |xxxxxxxxxxxxx |xxxxxxxxxxxxx |     13169260 |     13169266 |     13169265 |xxxxxxxxxxxxx |xxxxxxxxxxxxx |xxxxxxxxxxxxx |xxxxxxxxxxxxx |     27781869 |     27781875 |     27781874 |xxxxxxxxxxxxx |xxxxxxxxxxxxx |xxxxxxxxxxxxx |xxxxxxxxxxxxx |     58947745 |     58947750 |     58947750 |xxxxxxxxxxxxx |xxxxxxxxxxxxx |xxxxxxxxxxxxx |xxxxxxxxxxxxx |    122207733 |    122207738 |    122207736 |xxxxxxxxxxxxx |xxxxxxxxxxxxx |xxxxxxxxxxxxx |xxxxxxxxxxxxx |    256071362 |    256071367 |    256071366 |
bpred_bimod.dir_hits                        140655 |       140661 |       140661 |xxxxxxxxxxxxx |xxxxxxxxxxxxx |xxxxxxxxxxxxx |xxxxxxxxxxxxx |       303811 |       303817 |       303815 |xxxxxxxxxxxxx |xxxxxxxxxxxxx |xxxxxxxxxxxxx |xxxxxxxxxxxxx |       658967 |       658974 |       658976 |xxxxxxxxxxxxx |xxxxxxxxxxxxx |xxxxxxxxxxxxx |xxxxxxxxxxxxx |      1383947 |      1383947 |      1383945 |xxxxxxxxxxxxx |xxxxxxxxxxxxx |xxxxxxxxxxxxx |xxxxxxxxxxxxx |      2948088 |      2948088 |      2948086 |xxxxxxxxxxxxx |xxxxxxxxxxxxx |xxxxxxxxxxxxx |xxxxxxxxxxxxx |      6312805 |      6312806 |      6312803 |xxxxxxxxxxxxx |xxxxxxxxxxxxx |xxxxxxxxxxxxx |xxxxxxxxxxxxx |     13169390 |     13169391 |     13169388 |xxxxxxxxxxxxx |xxxxxxxxxxxxx |xxxxxxxxxxxxx |xxxxxxxxxxxxx |     27782000 |     27782001 |     27781998 |xxxxxxxxxxxxx |xxxxxxxxxxxxx |xxxxxxxxxxxxx |xxxxxxxxxxxxx |     58947887 |     58947887 |     58947885 |xxxxxxxxxxxxx |xxxxxxxxxxxxx |xxxxxxxxxxxxx |xxxxxxxxxxxxx |    122207876 |    122207876 |    122207871 |xxxxxxxxxxxxx |xxxxxxxxxxxxx |xxxxxxxxxxxxx |xxxxxxxxxxxxx |    256071505 |    256071505 |    256071502 |
bpred_bimod.misses                           31346 |        31340 |        31340 |xxxxxxxxxxxxx |xxxxxxxxxxxxx |xxxxxxxxxxxxx |xxxxxxxxxxxxx |        66856 |        66850 |        66852 |xxxxxxxxxxxxx |xxxxxxxxxxxxx |xxxxxxxxxxxxx |xxxxxxxxxxxxx |       142706 |       142699 |       142697 |xxxxxxxxxxxxx |xxxxxxxxxxxxx |xxxxxxxxxxxxx |xxxxxxxxxxxxx |       311024 |       311024 |       311026 |xxxxxxxxxxxxx |xxxxxxxxxxxxx |xxxxxxxxxxxxx |xxxxxxxxxxxxx |       664678 |       664678 |       664680 |xxxxxxxxxxxxx |xxxxxxxxxxxxx |xxxxxxxxxxxxx |xxxxxxxxxxxxx |      1401588 |      1401587 |      1401590 |xxxxxxxxxxxxx |xxxxxxxxxxxxx |xxxxxxxxxxxxx |xxxxxxxxxxxxx |      3008892 |      3008891 |      3008894 |xxxxxxxxxxxxx |xxxxxxxxxxxxx |xxxxxxxxxxxxx |xxxxxxxxxxxxx |      6355981 |      6355980 |      6355983 |xxxxxxxxxxxxx |xxxxxxxxxxxxx |xxxxxxxxxxxxx |xxxxxxxxxxxxx |     13251909 |     13251909 |     13251911 |xxxxxxxxxxxxx |xxxxxxxxxxxxx |xxxxxxxxxxxxx |xxxxxxxxxxxxx |     28190302 |     28190302 |     28190307 |xxxxxxxxxxxxx |xxxxxxxxxxxxx |xxxxxxxxxxxxx |xxxxxxxxxxxxx |     59005924 |     59005924 |     59005927 |
bpred_bimod.jr_hits                           4157 |         4157 |         4157 |xxxxxxxxxxxxx |xxxxxxxxxxxxx |xxxxxxxxxxxxx |xxxxxxxxxxxxx |         8261 |         8261 |         8261 |xxxxxxxxxxxxx |xxxxxxxxxxxxx |xxxxxxxxxxxxx |xxxxxxxxxxxxx |        16453 |        16453 |        16453 |xxxxxxxxxxxxx |xxxxxxxxxxxxx |xxxxxxxxxxxxx |xxxxxxxxxxxxx |        32837 |        32837 |        32837 |xxxxxxxxxxxxx |xxxxxxxxxxxxx |xxxxxxxxxxxxx |xxxxxxxxxxxxx |        65605 |        65605 |        65605 |xxxxxxxxxxxxx |xxxxxxxxxxxxx |xxxxxxxxxxxxx |xxxxxxxxxxxxx |       131141 |       131141 |       131141 |xxxxxxxxxxxxx |xxxxxxxxxxxxx |xxxxxxxxxxxxx |xxxxxxxxxxxxx |       262213 |       262213 |       262213 |xxxxxxxxxxxxx |xxxxxxxxxxxxx |xxxxxxxxxxxxx |xxxxxxxxxxxxx |       524357 |       524357 |       524357 |xxxxxxxxxxxxx |xxxxxxxxxxxxx |xxxxxxxxxxxxx |xxxxxxxxxxxxx |      1048648 |      1048648 |      1048648 |xxxxxxxxxxxxx |xxxxxxxxxxxxx |xxxxxxxxxxxxx |xxxxxxxxxxxxx |      2097224 |      2097224 |      2097224 |xxxxxxxxxxxxx |xxxxxxxxxxxxx |xxxxxxxxxxxxx |xxxxxxxxxxxxx |      4194376 |      4194376 |      4194376 |
bpred_bimod.jr_seen                           4157 |         4157 |         4157 |xxxxxxxxxxxxx |xxxxxxxxxxxxx |xxxxxxxxxxxxx |xxxxxxxxxxxxx |         8262 |         8262 |         8262 |xxxxxxxxxxxxx |xxxxxxxxxxxxx |xxxxxxxxxxxxx |xxxxxxxxxxxxx |        16454 |        16454 |        16454 |xxxxxxxxxxxxx |xxxxxxxxxxxxx |xxxxxxxxxxxxx |xxxxxxxxxxxxx |        32838 |        32838 |        32838 |xxxxxxxxxxxxx |xxxxxxxxxxxxx |xxxxxxxxxxxxx |xxxxxxxxxxxxx |        65606 |        65606 |        65606 |xxxxxxxxxxxxx |xxxxxxxxxxxxx |xxxxxxxxxxxxx |xxxxxxxxxxxxx |       131142 |       131142 |       131142 |xxxxxxxxxxxxx |xxxxxxxxxxxxx |xxxxxxxxxxxxx |xxxxxxxxxxxxx |       262214 |       262214 |       262214 |xxxxxxxxxxxxx |xxxxxxxxxxxxx |xxxxxxxxxxxxx |xxxxxxxxxxxxx |       524358 |       524358 |       524358 |xxxxxxxxxxxxx |xxxxxxxxxxxxx |xxxxxxxxxxxxx |xxxxxxxxxxxxx |      1048649 |      1048649 |      1048649 |xxxxxxxxxxxxx |xxxxxxxxxxxxx |xxxxxxxxxxxxx |xxxxxxxxxxxxx |      2097225 |      2097225 |      2097225 |xxxxxxxxxxxxx |xxxxxxxxxxxxx |xxxxxxxxxxxxx |xxxxxxxxxxxxx |      4194377 |      4194377 |      4194377 |
bpred_bimod.jr_non_ras_hits.PP                   0 |            0 |            0 |xxxxxxxxxxxxx |xxxxxxxxxxxxx |xxxxxxxxxxxxx |xxxxxxxxxxxxx |            0 |            0 |            0 |xxxxxxxxxxxxx |xxxxxxxxxxxxx |xxxxxxxxxxxxx |xxxxxxxxxxxxx |            0 |            0 |            0 |xxxxxxxxxxxxx |xxxxxxxxxxxxx |xxxxxxxxxxxxx |xxxxxxxxxxxxx |            0 |            0 |            0 |xxxxxxxxxxxxx |xxxxxxxxxxxxx |xxxxxxxxxxxxx |xxxxxxxxxxxxx |            0 |            0 |            0 |xxxxxxxxxxxxx |xxxxxxxxxxxxx |xxxxxxxxxxxxx |xxxxxxxxxxxxx |            0 |            0 |            0 |xxxxxxxxxxxxx |xxxxxxxxxxxxx |xxxxxxxxxxxxx |xxxxxxxxxxxxx |            0 |            0 |            0 |xxxxxxxxxxxxx |xxxxxxxxxxxxx |xxxxxxxxxxxxx |xxxxxxxxxxxxx |            0 |            0 |            0 |xxxxxxxxxxxxx |xxxxxxxxxxxxx |xxxxxxxxxxxxx |xxxxxxxxxxxxx |            0 |            0 |            0 |xxxxxxxxxxxxx |xxxxxxxxxxxxx |xxxxxxxxxxxxx |xxxxxxxxxxxxx |            0 |            0 |            0 |xxxxxxxxxxxxx |xxxxxxxxxxxxx |xxxxxxxxxxxxx |xxxxxxxxxxxxx |            0 |            0 |            0 |
bpred_bimod.jr_non_ras_seen.PP                   0 |            0 |            0 |xxxxxxxxxxxxx |xxxxxxxxxxxxx |xxxxxxxxxxxxx |xxxxxxxxxxxxx |            0 |            0 |            0 |xxxxxxxxxxxxx |xxxxxxxxxxxxx |xxxxxxxxxxxxx |xxxxxxxxxxxxx |            0 |            0 |            0 |xxxxxxxxxxxxx |xxxxxxxxxxxxx |xxxxxxxxxxxxx |xxxxxxxxxxxxx |            0 |            0 |            0 |xxxxxxxxxxxxx |xxxxxxxxxxxxx |xxxxxxxxxxxxx |xxxxxxxxxxxxx |            0 |            0 |            0 |xxxxxxxxxxxxx |xxxxxxxxxxxxx |xxxxxxxxxxxxx |xxxxxxxxxxxxx |            0 |            0 |            0 |xxxxxxxxxxxxx |xxxxxxxxxxxxx |xxxxxxxxxxxxx |xxxxxxxxxxxxx |            0 |            0 |            0 |xxxxxxxxxxxxx |xxxxxxxxxxxxx |xxxxxxxxxxxxx |xxxxxxxxxxxxx |            0 |            0 |            0 |xxxxxxxxxxxxx |xxxxxxxxxxxxx |xxxxxxxxxxxxx |xxxxxxxxxxxxx |            1 |            1 |            1 |xxxxxxxxxxxxx |xxxxxxxxxxxxx |xxxxxxxxxxxxx |xxxxxxxxxxxxx |            1 |            1 |            1 |xxxxxxxxxxxxx |xxxxxxxxxxxxx |xxxxxxxxxxxxx |xxxxxxxxxxxxx |            1 |            1 |            1 |
bpred_bimod.bpred_addr_rate                 0.8171 |       0.8171 |       0.8171 |xxxxxxxxxxxxx |xxxxxxxxxxxxx |xxxxxxxxxxxxx |xxxxxxxxxxxxx |       0.8193 |       0.8193 |       0.8193 |xxxxxxxxxxxxx |xxxxxxxxxxxxx |xxxxxxxxxxxxx |xxxxxxxxxxxxx |       0.8218 |       0.8218 |       0.8218 |xxxxxxxxxxxxx |xxxxxxxxxxxxx |xxxxxxxxxxxxx |xxxxxxxxxxxxx |       0.8164 |       0.8164 |       0.8164 |xxxxxxxxxxxxx |xxxxxxxxxxxxx |xxxxxxxxxxxxx |xxxxxxxxxxxxx |       0.8160 |       0.8160 |       0.8160 |xxxxxxxxxxxxx |xxxxxxxxxxxxx |xxxxxxxxxxxxx |xxxxxxxxxxxxx |       0.8183 |       0.8183 |       0.8183 |xxxxxxxxxxxxx |xxxxxxxxxxxxx |xxxxxxxxxxxxx |xxxxxxxxxxxxx |       0.8140 |       0.8140 |       0.8140 |xxxxxxxxxxxxx |xxxxxxxxxxxxx |xxxxxxxxxxxxx |xxxxxxxxxxxxx |       0.8138 |       0.8138 |       0.8138 |xxxxxxxxxxxxx |xxxxxxxxxxxxx |xxxxxxxxxxxxx |xxxxxxxxxxxxx |       0.8165 |       0.8165 |       0.8165 |xxxxxxxxxxxxx |xxxxxxxxxxxxx |xxxxxxxxxxxxx |xxxxxxxxxxxxx |       0.8126 |       0.8126 |       0.8126 |xxxxxxxxxxxxx |xxxxxxxxxxxxx |xxxxxxxxxxxxx |xxxxxxxxxxxxx |       0.8127 |       0.8127 |       0.8127 |
bpred_bimod.bpred_dir_rate                  0.8178 |       0.8178 |       0.8178 |xxxxxxxxxxxxx |xxxxxxxxxxxxx |xxxxxxxxxxxxx |xxxxxxxxxxxxx |       0.8196 |       0.8196 |       0.8196 |xxxxxxxxxxxxx |xxxxxxxxxxxxx |xxxxxxxxxxxxx |xxxxxxxxxxxxx |       0.8220 |       0.8220 |       0.8220 |xxxxxxxxxxxxx |xxxxxxxxxxxxx |xxxxxxxxxxxxx |xxxxxxxxxxxxx |       0.8165 |       0.8165 |       0.8165 |xxxxxxxxxxxxx |xxxxxxxxxxxxx |xxxxxxxxxxxxx |xxxxxxxxxxxxx |       0.8160 |       0.8160 |       0.8160 |xxxxxxxxxxxxx |xxxxxxxxxxxxx |xxxxxxxxxxxxx |xxxxxxxxxxxxx |       0.8183 |       0.8183 |       0.8183 |xxxxxxxxxxxxx |xxxxxxxxxxxxx |xxxxxxxxxxxxx |xxxxxxxxxxxxx |       0.8140 |       0.8140 |       0.8140 |xxxxxxxxxxxxx |xxxxxxxxxxxxx |xxxxxxxxxxxxx |xxxxxxxxxxxxx |       0.8138 |       0.8138 |       0.8138 |xxxxxxxxxxxxx |xxxxxxxxxxxxx |xxxxxxxxxxxxx |xxxxxxxxxxxxx |       0.8165 |       0.8165 |       0.8165 |xxxxxxxxxxxxx |xxxxxxxxxxxxx |xxxxxxxxxxxxx |xxxxxxxxxxxxx |       0.8126 |       0.8126 |       0.8126 |xxxxxxxxxxxxx |xxxxxxxxxxxxx |xxxxxxxxxxxxx |xxxxxxxxxxxxx |       0.8127 |       0.8127 |       0.8127 |
bpred_bimod.bpred_jr_rate                   1.0000 |       1.0000 |       1.0000 |xxxxxxxxxxxxx |xxxxxxxxxxxxx |xxxxxxxxxxxxx |xxxxxxxxxxxxx |       0.9999 |       0.9999 |       0.9999 |xxxxxxxxxxxxx |xxxxxxxxxxxxx |xxxxxxxxxxxxx |xxxxxxxxxxxxx |       0.9999 |       0.9999 |       0.9999 |xxxxxxxxxxxxx |xxxxxxxxxxxxx |xxxxxxxxxxxxx |xxxxxxxxxxxxx |       1.0000 |       1.0000 |       1.0000 |xxxxxxxxxxxxx |xxxxxxxxxxxxx |xxxxxxxxxxxxx |xxxxxxxxxxxxx |       1.0000 |       1.0000 |       1.0000 |xxxxxxxxxxxxx |xxxxxxxxxxxxx |xxxxxxxxxxxxx |xxxxxxxxxxxxx |       1.0000 |       1.0000 |       1.0000 |xxxxxxxxxxxxx |xxxxxxxxxxxxx |xxxxxxxxxxxxx |xxxxxxxxxxxxx |       1.0000 |       1.0000 |       1.0000 |xxxxxxxxxxxxx |xxxxxxxxxxxxx |xxxxxxxxxxxxx |xxxxxxxxxxxxx |       1.0000 |       1.0000 |       1.0000 |xxxxxxxxxxxxx |xxxxxxxxxxxxx |xxxxxxxxxxxxx |xxxxxxxxxxxxx |       1.0000 |       1.0000 |       1.0000 |xxxxxxxxxxxxx |xxxxxxxxxxxxx |xxxxxxxxxxxxx |xxxxxxxxxxxxx |       1.0000 |       1.0000 |       1.0000 |xxxxxxxxxxxxx |xxxxxxxxxxxxx |xxxxxxxxxxxxx |xxxxxxxxxxxxx |       1.0000 |       1.0000 |       1.0000 |
bpred_bimod.bpred_jr_non_ras_rate.PP       <error: |      <error: |      <error: |xxxxxxxxxxxxx |xxxxxxxxxxxxx |xxxxxxxxxxxxx |xxxxxxxxxxxxx |      <error: |      <error: |      <error: |xxxxxxxxxxxxx |xxxxxxxxxxxxx |xxxxxxxxxxxxx |xxxxxxxxxxxxx |      <error: |      <error: |      <error: |xxxxxxxxxxxxx |xxxxxxxxxxxxx |xxxxxxxxxxxxx |xxxxxxxxxxxxx |      <error: |      <error: |      <error: |xxxxxxxxxxxxx |xxxxxxxxxxxxx |xxxxxxxxxxxxx |xxxxxxxxxxxxx |      <error: |      <error: |      <error: |xxxxxxxxxxxxx |xxxxxxxxxxxxx |xxxxxxxxxxxxx |xxxxxxxxxxxxx |      <error: |      <error: |      <error: |xxxxxxxxxxxxx |xxxxxxxxxxxxx |xxxxxxxxxxxxx |xxxxxxxxxxxxx |      <error: |      <error: |      <error: |xxxxxxxxxxxxx |xxxxxxxxxxxxx |xxxxxxxxxxxxx |xxxxxxxxxxxxx |      <error: |      <error: |      <error: |xxxxxxxxxxxxx |xxxxxxxxxxxxx |xxxxxxxxxxxxx |xxxxxxxxxxxxx |       0.0000 |       0.0000 |       0.0000 |xxxxxxxxxxxxx |xxxxxxxxxxxxx |xxxxxxxxxxxxx |xxxxxxxxxxxxx |       0.0000 |       0.0000 |       0.0000 |xxxxxxxxxxxxx |xxxxxxxxxxxxx |xxxxxxxxxxxxx |xxxxxxxxxxxxx |       0.0000 |       0.0000 |       0.0000 |
bpred_bimod.retstack_pushes                   4159 |         4159 |         4159 |xxxxxxxxxxxxx |xxxxxxxxxxxxx |xxxxxxxxxxxxx |xxxxxxxxxxxxx |         8264 |         8264 |         8264 |xxxxxxxxxxxxx |xxxxxxxxxxxxx |xxxxxxxxxxxxx |xxxxxxxxxxxxx |        16456 |        16456 |        16456 |xxxxxxxxxxxxx |xxxxxxxxxxxxx |xxxxxxxxxxxxx |xxxxxxxxxxxxx |        32840 |        32840 |        32840 |xxxxxxxxxxxxx |xxxxxxxxxxxxx |xxxxxxxxxxxxx |xxxxxxxxxxxxx |        65608 |        65608 |        65608 |xxxxxxxxxxxxx |xxxxxxxxxxxxx |xxxxxxxxxxxxx |xxxxxxxxxxxxx |       131144 |       131144 |       131144 |xxxxxxxxxxxxx |xxxxxxxxxxxxx |xxxxxxxxxxxxx |xxxxxxxxxxxxx |       262216 |       262216 |       262216 |xxxxxxxxxxxxx |xxxxxxxxxxxxx |xxxxxxxxxxxxx |xxxxxxxxxxxxx |       524360 |       524360 |       524360 |xxxxxxxxxxxxx |xxxxxxxxxxxxx |xxxxxxxxxxxxx |xxxxxxxxxxxxx |      1048650 |      1048650 |      1048650 |xxxxxxxxxxxxx |xxxxxxxxxxxxx |xxxxxxxxxxxxx |xxxxxxxxxxxxx |      2097226 |      2097226 |      2097226 |xxxxxxxxxxxxx |xxxxxxxxxxxxx |xxxxxxxxxxxxx |xxxxxxxxxxxxx |      4194378 |      4194378 |      4194378 |
bpred_bimod.retstack_pops                     4157 |         4157 |         4157 |xxxxxxxxxxxxx |xxxxxxxxxxxxx |xxxxxxxxxxxxx |xxxxxxxxxxxxx |         8262 |         8262 |         8262 |xxxxxxxxxxxxx |xxxxxxxxxxxxx |xxxxxxxxxxxxx |xxxxxxxxxxxxx |        16454 |        16454 |        16454 |xxxxxxxxxxxxx |xxxxxxxxxxxxx |xxxxxxxxxxxxx |xxxxxxxxxxxxx |        32838 |        32838 |        32838 |xxxxxxxxxxxxx |xxxxxxxxxxxxx |xxxxxxxxxxxxx |xxxxxxxxxxxxx |        65606 |        65606 |        65606 |xxxxxxxxxxxxx |xxxxxxxxxxxxx |xxxxxxxxxxxxx |xxxxxxxxxxxxx |       131142 |       131142 |       131142 |xxxxxxxxxxxxx |xxxxxxxxxxxxx |xxxxxxxxxxxxx |xxxxxxxxxxxxx |       262214 |       262214 |       262214 |xxxxxxxxxxxxx |xxxxxxxxxxxxx |xxxxxxxxxxxxx |xxxxxxxxxxxxx |       524358 |       524358 |       524358 |xxxxxxxxxxxxx |xxxxxxxxxxxxx |xxxxxxxxxxxxx |xxxxxxxxxxxxx |      1048648 |      1048648 |      1048648 |xxxxxxxxxxxxx |xxxxxxxxxxxxx |xxxxxxxxxxxxx |xxxxxxxxxxxxx |      2097224 |      2097224 |      2097224 |xxxxxxxxxxxxx |xxxxxxxxxxxxx |xxxxxxxxxxxxx |xxxxxxxxxxxxx |      4194376 |      4194376 |      4194376 |
bpred_bimod.used_ras.PP                       4157 |         4157 |         4157 |xxxxxxxxxxxxx |xxxxxxxxxxxxx |xxxxxxxxxxxxx |xxxxxxxxxxxxx |         8262 |         8262 |         8262 |xxxxxxxxxxxxx |xxxxxxxxxxxxx |xxxxxxxxxxxxx |xxxxxxxxxxxxx |        16454 |        16454 |        16454 |xxxxxxxxxxxxx |xxxxxxxxxxxxx |xxxxxxxxxxxxx |xxxxxxxxxxxxx |        32838 |        32838 |        32838 |xxxxxxxxxxxxx |xxxxxxxxxxxxx |xxxxxxxxxxxxx |xxxxxxxxxxxxx |        65606 |        65606 |        65606 |xxxxxxxxxxxxx |xxxxxxxxxxxxx |xxxxxxxxxxxxx |xxxxxxxxxxxxx |       131142 |       131142 |       131142 |xxxxxxxxxxxxx |xxxxxxxxxxxxx |xxxxxxxxxxxxx |xxxxxxxxxxxxx |       262214 |       262214 |       262214 |xxxxxxxxxxxxx |xxxxxxxxxxxxx |xxxxxxxxxxxxx |xxxxxxxxxxxxx |       524358 |       524358 |       524358 |xxxxxxxxxxxxx |xxxxxxxxxxxxx |xxxxxxxxxxxxx |xxxxxxxxxxxxx |      1048648 |      1048648 |      1048648 |xxxxxxxxxxxxx |xxxxxxxxxxxxx |xxxxxxxxxxxxx |xxxxxxxxxxxxx |      2097224 |      2097224 |      2097224 |xxxxxxxxxxxxx |xxxxxxxxxxxxx |xxxxxxxxxxxxx |xxxxxxxxxxxxx |      4194376 |      4194376 |      4194376 |
bpred_bimod.ras_hits.PP                       4157 |         4157 |         4157 |xxxxxxxxxxxxx |xxxxxxxxxxxxx |xxxxxxxxxxxxx |xxxxxxxxxxxxx |         8261 |         8261 |         8261 |xxxxxxxxxxxxx |xxxxxxxxxxxxx |xxxxxxxxxxxxx |xxxxxxxxxxxxx |        16453 |        16453 |        16453 |xxxxxxxxxxxxx |xxxxxxxxxxxxx |xxxxxxxxxxxxx |xxxxxxxxxxxxx |        32837 |        32837 |        32837 |xxxxxxxxxxxxx |xxxxxxxxxxxxx |xxxxxxxxxxxxx |xxxxxxxxxxxxx |        65605 |        65605 |        65605 |xxxxxxxxxxxxx |xxxxxxxxxxxxx |xxxxxxxxxxxxx |xxxxxxxxxxxxx |       131141 |       131141 |       131141 |xxxxxxxxxxxxx |xxxxxxxxxxxxx |xxxxxxxxxxxxx |xxxxxxxxxxxxx |       262213 |       262213 |       262213 |xxxxxxxxxxxxx |xxxxxxxxxxxxx |xxxxxxxxxxxxx |xxxxxxxxxxxxx |       524357 |       524357 |       524357 |xxxxxxxxxxxxx |xxxxxxxxxxxxx |xxxxxxxxxxxxx |xxxxxxxxxxxxx |      1048648 |      1048648 |      1048648 |xxxxxxxxxxxxx |xxxxxxxxxxxxx |xxxxxxxxxxxxx |xxxxxxxxxxxxx |      2097224 |      2097224 |      2097224 |xxxxxxxxxxxxx |xxxxxxxxxxxxx |xxxxxxxxxxxxx |xxxxxxxxxxxxx |      4194376 |      4194376 |      4194376 |
bpred_bimod.ras_rate.PP                     1.0000 |       1.0000 |       1.0000 |xxxxxxxxxxxxx |xxxxxxxxxxxxx |xxxxxxxxxxxxx |xxxxxxxxxxxxx |       0.9999 |       0.9999 |       0.9999 |xxxxxxxxxxxxx |xxxxxxxxxxxxx |xxxxxxxxxxxxx |xxxxxxxxxxxxx |       0.9999 |       0.9999 |       0.9999 |xxxxxxxxxxxxx |xxxxxxxxxxxxx |xxxxxxxxxxxxx |xxxxxxxxxxxxx |       1.0000 |       1.0000 |       1.0000 |xxxxxxxxxxxxx |xxxxxxxxxxxxx |xxxxxxxxxxxxx |xxxxxxxxxxxxx |       1.0000 |       1.0000 |       1.0000 |xxxxxxxxxxxxx |xxxxxxxxxxxxx |xxxxxxxxxxxxx |xxxxxxxxxxxxx |       1.0000 |       1.0000 |       1.0000 |xxxxxxxxxxxxx |xxxxxxxxxxxxx |xxxxxxxxxxxxx |xxxxxxxxxxxxx |       1.0000 |       1.0000 |       1.0000 |xxxxxxxxxxxxx |xxxxxxxxxxxxx |xxxxxxxxxxxxx |xxxxxxxxxxxxx |       1.0000 |       1.0000 |       1.0000 |xxxxxxxxxxxxx |xxxxxxxxxxxxx |xxxxxxxxxxxxx |xxxxxxxxxxxxx |       1.0000 |       1.0000 |       1.0000 |xxxxxxxxxxxxx |xxxxxxxxxxxxx |xxxxxxxxxxxxx |xxxxxxxxxxxxx |       1.0000 |       1.0000 |       1.0000 |xxxxxxxxxxxxx |xxxxxxxxxxxxx |xxxxxxxxxxxxx |xxxxxxxxxxxxx |       1.0000 |       1.0000 |       1.0000 |
bpred_2lev.lookups                   xxxxxxxxxxxxx |xxxxxxxxxxxxx |xxxxxxxxxxxxx |       172001 |       172001 |       172001 |       172001 |xxxxxxxxxxxxx |xxxxxxxxxxxxx |xxxxxxxxxxxxx |       370667 |       370667 |       370667 |       370667 |xxxxxxxxxxxxx |xxxxxxxxxxxxx |xxxxxxxxxxxxx |       801673 |       801673 |       801673 |       801673 |xxxxxxxxxxxxx |xxxxxxxxxxxxx |xxxxxxxxxxxxx |      1694971 |      1694971 |      1694971 |      1694971 |xxxxxxxxxxxxx |xxxxxxxxxxxxx |xxxxxxxxxxxxx |      3612766 |      3612766 |      3612766 |      3612766 |xxxxxxxxxxxxx |xxxxxxxxxxxxx |xxxxxxxxxxxxx |      7714393 |      7714393 |      7714393 |      7714393 |xxxxxxxxxxxxx |xxxxxxxxxxxxx |xxxxxxxxxxxxx |     16178282 |     16178282 |     16178282 |     16178282 |xxxxxxxxxxxxx |xxxxxxxxxxxxx |xxxxxxxxxxxxx |     34137981 |     34137981 |     34137981 |     34137981 |xxxxxxxxxxxxx |xxxxxxxxxxxxx |xxxxxxxxxxxxx |     72199796 |     72199796 |     72199796 |     72199796 |xxxxxxxxxxxxx |xxxxxxxxxxxxx |xxxxxxxxxxxxx |    150398178 |    150398178 |    150398178 |    150398178 |xxxxxxxxxxxxx |xxxxxxxxxxxxx |xxxxxxxxxxxxx |    315077429 |    315077429 |    315077429 |    315077429 |
[...]
bpred_2lev.retstack_pops             xxxxxxxxxxxxx |xxxxxxxxxxxxx |xxxxxxxxxxxxx |         4157 |         4157 |         4157 |         4157 |xxxxxxxxxxxxx |xxxxxxxxxxxxx |xxxxxxxxxxxxx |         8262 |         8262 |         8262 |         8262 |xxxxxxxxxxxxx |xxxxxxxxxxxxx |xxxxxxxxxxxxx |        16454 |        16454 |        16454 |        16454 |xxxxxxxxxxxxx |xxxxxxxxxxxxx |xxxxxxxxxxxxx |        32838 |        32838 |        32838 |        32838 |xxxxxxxxxxxxx |xxxxxxxxxxxxx |xxxxxxxxxxxxx |        65606 |        65606 |        65606 |        65606 |xxxxxxxxxxxxx |xxxxxxxxxxxxx |xxxxxxxxxxxxx |       131142 |       131142 |       131142 |       131142 |xxxxxxxxxxxxx |xxxxxxxxxxxxx |xxxxxxxxxxxxx |       262214 |       262214 |       262214 |       262214 |xxxxxxxxxxxxx |xxxxxxxxxxxxx |xxxxxxxxxxxxx |       524358 |       524358 |       524358 |       524358 |xxxxxxxxxxxxx |xxxxxxxxxxxxx |xxxxxxxxxxxxx |      1048648 |      1048648 |      1048648 |      1048648 |xxxxxxxxxxxxx |xxxxxxxxxxxxx |xxxxxxxxxxxxx |      2097224 |      2097224 |      2097224 |      2097224 |xxxxxxxxxxxxx |xxxxxxxxxxxxx |xxxxxxxxxxxxx |      4194376 |      4194376 |      4194376 |      4194376 |
bpred_2lev.used_ras.PP               xxxxxxxxxxxxx |xxxxxxxxxxxxx |xxxxxxxxxxxxx |         4157 |         4157 |         4157 |         4157 |xxxxxxxxxxxxx |xxxxxxxxxxxxx |xxxxxxxxxxxxx |         8262 |         8262 |         8262 |         8262 |xxxxxxxxxxxxx |xxxxxxxxxxxxx |xxxxxxxxxxxxx |        16454 |        16454 |        16454 |        16454 |xxxxxxxxxxxxx |xxxxxxxxxxxxx |xxxxxxxxxxxxx |        32838 |        32838 |        32838 |        32838 |xxxxxxxxxxxxx |xxxxxxxxxxxxx |xxxxxxxxxxxxx |        65606 |        65606 |        65606 |        65606 |xxxxxxxxxxxxx |xxxxxxxxxxxxx |xxxxxxxxxxxxx |       131142 |       131142 |       131142 |       131142 |xxxxxxxxxxxxx |xxxxxxxxxxxxx |xxxxxxxxxxxxx |       262214 |       262214 |       262214 |       262214 |xxxxxxxxxxxxx |xxxxxxxxxxxxx |xxxxxxxxxxxxx |       524358 |       524358 |       524358 |       524358 |xxxxxxxxxxxxx |xxxxxxxxxxxxx |xxxxxxxxxxxxx |      1048648 |      1048648 |      1048648 |      1048648 |xxxxxxxxxxxxx |xxxxxxxxxxxxx |xxxxxxxxxxxxx |      2097224 |      2097224 |      2097224 |      2097224 |xxxxxxxxxxxxx |xxxxxxxxxxxxx |xxxxxxxxxxxxx |      4194376 |      4194376 |      4194376 |      4194376 |
bpred_2lev.ras_hits.PP               xxxxxxxxxxxxx |xxxxxxxxxxxxx |xxxxxxxxxxxxx |         4157 |         4157 |         4157 |         4157 |xxxxxxxxxxxxx |xxxxxxxxxxxxx |xxxxxxxxxxxxx |         8261 |         8261 |         8261 |         8261 |xxxxxxxxxxxxx |xxxxxxxxxxxxx |xxxxxxxxxxxxx |        16453 |        16453 |        16453 |        16453 |xxxxxxxxxxxxx |xxxxxxxxxxxxx |xxxxxxxxxxxxx |        32837 |        32837 |        32837 |        32837 |xxxxxxxxxxxxx |xxxxxxxxxxxxx |xxxxxxxxxxxxx |        65605 |        65605 |        65605 |        65605 |xxxxxxxxxxxxx |xxxxxxxxxxxxx |xxxxxxxxxxxxx |       131141 |       131141 |       131141 |       131141 |xxxxxxxxxxxxx |xxxxxxxxxxxxx |xxxxxxxxxxxxx |       262213 |       262213 |       262213 |       262213 |xxxxxxxxxxxxx |xxxxxxxxxxxxx |xxxxxxxxxxxxx |       524357 |       524357 |       524357 |       524357 |xxxxxxxxxxxxx |xxxxxxxxxxxxx |xxxxxxxxxxxxx |      1048648 |      1048648 |      1048648 |      1048648 |xxxxxxxxxxxxx |xxxxxxxxxxxxx |xxxxxxxxxxxxx |      2097224 |      2097224 |      2097224 |      2097224 |xxxxxxxxxxxxx |xxxxxxxxxxxxx |xxxxxxxxxxxxx |      4194376 |      4194376 |      4194376 |      4194376 |
bpred_2lev.ras_rate.PP               xxxxxxxxxxxxx |xxxxxxxxxxxxx |xxxxxxxxxxxxx |       1.0000 |       1.0000 |       1.0000 |       1.0000 |xxxxxxxxxxxxx |xxxxxxxxxxxxx |xxxxxxxxxxxxx |       0.9999 |       0.9999 |       0.9999 |       0.9999 |xxxxxxxxxxxxx |xxxxxxxxxxxxx |xxxxxxxxxxxxx |       0.9999 |       0.9999 |       0.9999 |       0.9999 |xxxxxxxxxxxxx |xxxxxxxxxxxxx |xxxxxxxxxxxxx |       1.0000 |       1.0000 |       1.0000 |       1.0000 |xxxxxxxxxxxxx |xxxxxxxxxxxxx |xxxxxxxxxxxxx |       1.0000 |       1.0000 |       1.0000 |       1.0000 |xxxxxxxxxxxxx |xxxxxxxxxxxxx |xxxxxxxxxxxxx |       1.0000 |       1.0000 |       1.0000 |       1.0000 |xxxxxxxxxxxxx |xxxxxxxxxxxxx |xxxxxxxxxxxxx |       1.0000 |       1.0000 |       1.0000 |       1.0000 |xxxxxxxxxxxxx |xxxxxxxxxxxxx |xxxxxxxxxxxxx |       1.0000 |       1.0000 |       1.0000 |       1.0000 |xxxxxxxxxxxxx |xxxxxxxxxxxxx |xxxxxxxxxxxxx |       1.0000 |       1.0000 |       1.0000 |       1.0000 |xxxxxxxxxxxxx |xxxxxxxxxxxxx |xxxxxxxxxxxxx |       1.0000 |       1.0000 |       1.0000 |       1.0000 |xxxxxxxxxxxxx |xxxxxxxxxxxxx |xxxxxxxxxxxxx |       1.0000 |       1.0000 |       1.0000 |       1.0000 |

Command list: 
	sslittle-na-sstrix-gcc -Wall -O3 -funroll-loops -finline-functions  -DRANDOM_SIZE=4096 -DOFFSET=0 -DSORT=memory_tuned_heapsort memory_tuned_heapsort1514530517.c simpleMain.c -o memory_tuned_heapsort759828635
	sim-cache -cache:dl1 dl1:256:32:1:l -cache:dl2 dl2:131072:32:1:l -cache:il1 il1:256:32:1:l -cache:il2 dl2 memory_tuned_heapsort759828635
	sim-cache -cache:dl1 dl1:256:32:1:l -cache:dl2 dl2:65536:32:1:l -cache:il1 il1:256:32:1:l -cache:il2 dl2 memory_tuned_heapsort759828635
	sim-cache -cache:dl1 dl1:1:32:256:l -cache:dl2 dl2:1:32:131072:l -cache:il1 il1:1:32:256:l -cache:il2 dl2 memory_tuned_heapsort759828635
	sim-cache -cache:dl1 dl1:1:32:256:l -cache:dl2 dl2:1:32:65536:l -cache:il1 il1:1:32:256:l -cache:il2 dl2 memory_tuned_heapsort759828635
	sim-bpred -bpred bimod -bpred:bimod 512 memory_tuned_heapsort759828635
	sim-bpred -bpred bimod -bpred:bimod 1024 memory_tuned_heapsort759828635
	sim-bpred -bpred bimod -bpred:bimod 2048 memory_tuned_heapsort759828635
	sim-bpred -bpred 2lev -bpred:2lev 1 512 10 1 memory_tuned_heapsort759828635
	sim-bpred -bpred 2lev -bpred:2lev 1 1024 10 1 memory_tuned_heapsort759828635
	sim-bpred -bpred 2lev -bpred:2lev 1 2048 10 1 memory_tuned_heapsort759828635
	sim-bpred -bpred 2lev -bpred:2lev 1 4096 10 1 memory_tuned_heapsort759828635
	sslittle-na-sstrix-gcc -Wall -O3 -funroll-loops -finline-functions  -DRANDOM_SIZE=8192 -DOFFSET=0 -DSORT=memory_tuned_heapsort memory_tuned_heapsort1514530517.c simpleMain.c -o memory_tuned_heapsort759828635
	sim-cache -cache:dl1 dl1:256:32:1:l -cache:dl2 dl2:131072:32:1:l -cache:il1 il1:256:32:1:l -cache:il2 dl2 memory_tuned_heapsort759828635
	sim-cache -cache:dl1 dl1:256:32:1:l -cache:dl2 dl2:65536:32:1:l -cache:il1 il1:256:32:1:l -cache:il2 dl2 memory_tuned_heapsort759828635
	sim-cache -cache:dl1 dl1:1:32:256:l -cache:dl2 dl2:1:32:131072:l -cache:il1 il1:1:32:256:l -cache:il2 dl2 memory_tuned_heapsort759828635
	sim-cache -cache:dl1 dl1:1:32:256:l -cache:dl2 dl2:1:32:65536:l -cache:il1 il1:1:32:256:l -cache:il2 dl2 memory_tuned_heapsort759828635
	sim-bpred -bpred bimod -bpred:bimod 512 memory_tuned_heapsort759828635
	sim-bpred -bpred bimod -bpred:bimod 1024 memory_tuned_heapsort759828635
	sim-bpred -bpred bimod -bpred:bimod 2048 memory_tuned_heapsort759828635
	sim-bpred -bpred 2lev -bpred:2lev 1 512 10 1 memory_tuned_heapsort759828635
	sim-bpred -bpred 2lev -bpred:2lev 1 1024 10 1 memory_tuned_heapsort759828635
	sim-bpred -bpred 2lev -bpred:2lev 1 2048 10 1 memory_tuned_heapsort759828635
	sim-bpred -bpred 2lev -bpred:2lev 1 4096 10 1 memory_tuned_heapsort759828635
	sslittle-na-sstrix-gcc -Wall -O3 -funroll-loops -finline-functions  -DRANDOM_SIZE=16384 -DOFFSET=0 -DSORT=memory_tuned_heapsort memory_tuned_heapsort1514530517.c simpleMain.c -o memory_tuned_heapsort759828635
	sim-cache -cache:dl1 dl1:256:32:1:l -cache:dl2 dl2:131072:32:1:l -cache:il1 il1:256:32:1:l -cache:il2 dl2 memory_tuned_heapsort759828635
	sim-cache -cache:dl1 dl1:256:32:1:l -cache:dl2 dl2:65536:32:1:l -cache:il1 il1:256:32:1:l -cache:il2 dl2 memory_tuned_heapsort759828635
	sim-cache -cache:dl1 dl1:1:32:256:l -cache:dl2 dl2:1:32:131072:l -cache:il1 il1:1:32:256:l -cache:il2 dl2 memory_tuned_heapsort759828635
	sim-cache -cache:dl1 dl1:1:32:256:l -cache:dl2 dl2:1:32:65536:l -cache:il1 il1:1:32:256:l -cache:il2 dl2 memory_tuned_heapsort759828635
	sim-bpred -bpred bimod -bpred:bimod 512 memory_tuned_heapsort759828635
	sim-bpred -bpred bimod -bpred:bimod 1024 memory_tuned_heapsort759828635
	sim-bpred -bpred bimod -bpred:bimod 2048 memory_tuned_heapsort759828635
	sim-bpred -bpred 2lev -bpred:2lev 1 512 10 1 memory_tuned_heapsort759828635
	sim-bpred -bpred 2lev -bpred:2lev 1 1024 10 1 memory_tuned_heapsort759828635
	sim-bpred -bpred 2lev -bpred:2lev 1 2048 10 1 memory_tuned_heapsort759828635
	sim-bpred -bpred 2lev -bpred:2lev 1 4096 10 1 memory_tuned_heapsort759828635
	sslittle-na-sstrix-gcc -Wall -O3 -funroll-loops -finline-functions  -DRANDOM_SIZE=32768 -DOFFSET=0 -DSORT=memory_tuned_heapsort memory_tuned_heapsort1514530517.c simpleMain.c -o memory_tuned_heapsort759828635
	sim-cache -cache:dl1 dl1:256:32:1:l -cache:dl2 dl2:131072:32:1:l -cache:il1 il1:256:32:1:l -cache:il2 dl2 memory_tuned_heapsort759828635
	sim-cache -cache:dl1 dl1:256:32:1:l -cache:dl2 dl2:65536:32:1:l -cache:il1 il1:256:32:1:l -cache:il2 dl2 memory_tuned_heapsort759828635
	sim-cache -cache:dl1 dl1:1:32:256:l -cache:dl2 dl2:1:32:131072:l -cache:il1 il1:1:32:256:l -cache:il2 dl2 memory_tuned_heapsort759828635
	sim-cache -cache:dl1 dl1:1:32:256:l -cache:dl2 dl2:1:32:65536:l -cache:il1 il1:1:32:256:l -cache:il2 dl2 memory_tuned_heapsort759828635
	sim-bpred -bpred bimod -bpred:bimod 512 memory_tuned_heapsort759828635
	sim-bpred -bpred bimod -bpred:bimod 1024 memory_tuned_heapsort759828635
	sim-bpred -bpred bimod -bpred:bimod 2048 memory_tuned_heapsort759828635
	sim-bpred -bpred 2lev -bpred:2lev 1 512 10 1 memory_tuned_heapsort759828635
	sim-bpred -bpred 2lev -bpred:2lev 1 1024 10 1 memory_tuned_heapsort759828635
	sim-bpred -bpred 2lev -bpred:2lev 1 2048 10 1 memory_tuned_heapsort759828635
	sim-bpred -bpred 2lev -bpred:2lev 1 4096 10 1 memory_tuned_heapsort759828635
	sslittle-na-sstrix-gcc -Wall -O3 -funroll-loops -finline-functions  -DRANDOM_SIZE=65536 -DOFFSET=0 -DSORT=memory_tuned_heapsort memory_tuned_heapsort1514530517.c simpleMain.c -o memory_tuned_heapsort759828635
	sim-cache -cache:dl1 dl1:256:32:1:l -cache:dl2 dl2:131072:32:1:l -cache:il1 il1:256:32:1:l -cache:il2 dl2 memory_tuned_heapsort759828635
	sim-cache -cache:dl1 dl1:256:32:1:l -cache:dl2 dl2:65536:32:1:l -cache:il1 il1:256:32:1:l -cache:il2 dl2 memory_tuned_heapsort759828635
	sim-cache -cache:dl1 dl1:1:32:256:l -cache:dl2 dl2:1:32:131072:l -cache:il1 il1:1:32:256:l -cache:il2 dl2 memory_tuned_heapsort759828635
	sim-cache -cache:dl1 dl1:1:32:256:l -cache:dl2 dl2:1:32:65536:l -cache:il1 il1:1:32:256:l -cache:il2 dl2 memory_tuned_heapsort759828635
	sim-bpred -bpred bimod -bpred:bimod 512 memory_tuned_heapsort759828635
	sim-bpred -bpred bimod -bpred:bimod 1024 memory_tuned_heapsort759828635
	sim-bpred -bpred bimod -bpred:bimod 2048 memory_tuned_heapsort759828635
	sim-bpred -bpred 2lev -bpred:2lev 1 512 10 1 memory_tuned_heapsort759828635
	sim-bpred -bpred 2lev -bpred:2lev 1 1024 10 1 memory_tuned_heapsort759828635
	sim-bpred -bpred 2lev -bpred:2lev 1 2048 10 1 memory_tuned_heapsort759828635
	sim-bpred -bpred 2lev -bpred:2lev 1 4096 10 1 memory_tuned_heapsort759828635
	sslittle-na-sstrix-gcc -Wall -O3 -funroll-loops -finline-functions  -DRANDOM_SIZE=131072 -DOFFSET=0 -DSORT=memory_tuned_heapsort memory_tuned_heapsort1514530517.c simpleMain.c -o memory_tuned_heapsort759828635
	sim-cache -cache:dl1 dl1:256:32:1:l -cache:dl2 dl2:131072:32:1:l -cache:il1 il1:256:32:1:l -cache:il2 dl2 memory_tuned_heapsort759828635
	sim-cache -cache:dl1 dl1:256:32:1:l -cache:dl2 dl2:65536:32:1:l -cache:il1 il1:256:32:1:l -cache:il2 dl2 memory_tuned_heapsort759828635
	sim-cache -cache:dl1 dl1:1:32:256:l -cache:dl2 dl2:1:32:131072:l -cache:il1 il1:1:32:256:l -cache:il2 dl2 memory_tuned_heapsort759828635
	sim-cache -cache:dl1 dl1:1:32:256:l -cache:dl2 dl2:1:32:65536:l -cache:il1 il1:1:32:256:l -cache:il2 dl2 memory_tuned_heapsort759828635
	sim-bpred -bpred bimod -bpred:bimod 512 memory_tuned_heapsort759828635
	sim-bpred -bpred bimod -bpred:bimod 1024 memory_tuned_heapsort759828635
	sim-bpred -bpred bimod -bpred:bimod 2048 memory_tuned_heapsort759828635
	sim-bpred -bpred 2lev -bpred:2lev 1 512 10 1 memory_tuned_heapsort759828635
	sim-bpred -bpred 2lev -bpred:2lev 1 1024 10 1 memory_tuned_heapsort759828635
	sim-bpred -bpred 2lev -bpred:2lev 1 2048 10 1 memory_tuned_heapsort759828635
	sim-bpred -bpred 2lev -bpred:2lev 1 4096 10 1 memory_tuned_heapsort759828635
	sslittle-na-sstrix-gcc -Wall -O3 -funroll-loops -finline-functions  -DRANDOM_SIZE=262144 -DOFFSET=0 -DSORT=memory_tuned_heapsort memory_tuned_heapsort1514530517.c simpleMain.c -o memory_tuned_heapsort759828635
	sim-cache -cache:dl1 dl1:256:32:1:l -cache:dl2 dl2:131072:32:1:l -cache:il1 il1:256:32:1:l -cache:il2 dl2 memory_tuned_heapsort759828635
	sim-cache -cache:dl1 dl1:256:32:1:l -cache:dl2 dl2:65536:32:1:l -cache:il1 il1:256:32:1:l -cache:il2 dl2 memory_tuned_heapsort759828635
	sim-cache -cache:dl1 dl1:1:32:256:l -cache:dl2 dl2:1:32:131072:l -cache:il1 il1:1:32:256:l -cache:il2 dl2 memory_tuned_heapsort759828635
	sim-cache -cache:dl1 dl1:1:32:256:l -cache:dl2 dl2:1:32:65536:l -cache:il1 il1:1:32:256:l -cache:il2 dl2 memory_tuned_heapsort759828635
	sim-bpred -bpred bimod -bpred:bimod 512 memory_tuned_heapsort759828635
	sim-bpred -bpred bimod -bpred:bimod 1024 memory_tuned_heapsort759828635
	sim-bpred -bpred bimod -bpred:bimod 2048 memory_tuned_heapsort759828635
	sim-bpred -bpred 2lev -bpred:2lev 1 512 10 1 memory_tuned_heapsort759828635
	sim-bpred -bpred 2lev -bpred:2lev 1 1024 10 1 memory_tuned_heapsort759828635
	sim-bpred -bpred 2lev -bpred:2lev 1 2048 10 1 memory_tuned_heapsort759828635
	sim-bpred -bpred 2lev -bpred:2lev 1 4096 10 1 memory_tuned_heapsort759828635
	sslittle-na-sstrix-gcc -Wall -O3 -funroll-loops -finline-functions  -DRANDOM_SIZE=524288 -DOFFSET=0 -DSORT=memory_tuned_heapsort memory_tuned_heapsort1514530517.c simpleMain.c -o memory_tuned_heapsort759828635
	sim-cache -cache:dl1 dl1:256:32:1:l -cache:dl2 dl2:131072:32:1:l -cache:il1 il1:256:32:1:l -cache:il2 dl2 memory_tuned_heapsort759828635
	sim-cache -cache:dl1 dl1:256:32:1:l -cache:dl2 dl2:65536:32:1:l -cache:il1 il1:256:32:1:l -cache:il2 dl2 memory_tuned_heapsort759828635
	sim-cache -cache:dl1 dl1:1:32:256:l -cache:dl2 dl2:1:32:131072:l -cache:il1 il1:1:32:256:l -cache:il2 dl2 memory_tuned_heapsort759828635
	sim-cache -cache:dl1 dl1:1:32:256:l -cache:dl2 dl2:1:32:65536:l -cache:il1 il1:1:32:256:l -cache:il2 dl2 memory_tuned_heapsort759828635
	sim-bpred -bpred bimod -bpred:bimod 512 memory_tuned_heapsort759828635
	sim-bpred -bpred bimod -bpred:bimod 1024 memory_tuned_heapsort759828635
	sim-bpred -bpred bimod -bpred:bimod 2048 memory_tuned_heapsort759828635
	sim-bpred -bpred 2lev -bpred:2lev 1 512 10 1 memory_tuned_heapsort759828635
	sim-bpred -bpred 2lev -bpred:2lev 1 1024 10 1 memory_tuned_heapsort759828635
	sim-bpred -bpred 2lev -bpred:2lev 1 2048 10 1 memory_tuned_heapsort759828635
	sim-bpred -bpred 2lev -bpred:2lev 1 4096 10 1 memory_tuned_heapsort759828635
	sslittle-na-sstrix-gcc -Wall -O3 -funroll-loops -finline-functions  -DRANDOM_SIZE=1048576 -DOFFSET=0 -DSORT=memory_tuned_heapsort memory_tuned_heapsort1514530517.c simpleMain.c -o memory_tuned_heapsort759828635
	sim-cache -cache:dl1 dl1:256:32:1:l -cache:dl2 dl2:131072:32:1:l -cache:il1 il1:256:32:1:l -cache:il2 dl2 memory_tuned_heapsort759828635
	sim-cache -cache:dl1 dl1:256:32:1:l -cache:dl2 dl2:65536:32:1:l -cache:il1 il1:256:32:1:l -cache:il2 dl2 memory_tuned_heapsort759828635
	sim-cache -cache:dl1 dl1:1:32:256:l -cache:dl2 dl2:1:32:131072:l -cache:il1 il1:1:32:256:l -cache:il2 dl2 memory_tuned_heapsort759828635
	sim-cache -cache:dl1 dl1:1:32:256:l -cache:dl2 dl2:1:32:65536:l -cache:il1 il1:1:32:256:l -cache:il2 dl2 memory_tuned_heapsort759828635
	sim-bpred -bpred bimod -bpred:bimod 512 memory_tuned_heapsort759828635
	sim-bpred -bpred bimod -bpred:bimod 1024 memory_tuned_heapsort759828635
	sim-bpred -bpred bimod -bpred:bimod 2048 memory_tuned_heapsort759828635
	sim-bpred -bpred 2lev -bpred:2lev 1 512 10 1 memory_tuned_heapsort759828635
	sim-bpred -bpred 2lev -bpred:2lev 1 1024 10 1 memory_tuned_heapsort759828635
	sim-bpred -bpred 2lev -bpred:2lev 1 2048 10 1 memory_tuned_heapsort759828635
	sim-bpred -bpred 2lev -bpred:2lev 1 4096 10 1 memory_tuned_heapsort759828635
	sslittle-na-sstrix-gcc -Wall -O3 -funroll-loops -finline-functions  -DRANDOM_SIZE=2097152 -DOFFSET=0 -DSORT=memory_tuned_heapsort memory_tuned_heapsort1514530517.c simpleMain.c -o memory_tuned_heapsort759828635
	sim-cache -cache:dl1 dl1:256:32:1:l -cache:dl2 dl2:131072:32:1:l -cache:il1 il1:256:32:1:l -cache:il2 dl2 memory_tuned_heapsort759828635
	sim-cache -cache:dl1 dl1:256:32:1:l -cache:dl2 dl2:65536:32:1:l -cache:il1 il1:256:32:1:l -cache:il2 dl2 memory_tuned_heapsort759828635
	sim-cache -cache:dl1 dl1:1:32:256:l -cache:dl2 dl2:1:32:131072:l -cache:il1 il1:1:32:256:l -cache:il2 dl2 memory_tuned_heapsort759828635
	sim-cache -cache:dl1 dl1:1:32:256:l -cache:dl2 dl2:1:32:65536:l -cache:il1 il1:1:32:256:l -cache:il2 dl2 memory_tuned_heapsort759828635
	sim-bpred -bpred bimod -bpred:bimod 512 memory_tuned_heapsort759828635
	sim-bpred -bpred bimod -bpred:bimod 1024 memory_tuned_heapsort759828635
	sim-bpred -bpred bimod -bpred:bimod 2048 memory_tuned_heapsort759828635
	sim-bpred -bpred 2lev -bpred:2lev 1 512 10 1 memory_tuned_heapsort759828635
	sim-bpred -bpred 2lev -bpred:2lev 1 1024 10 1 memory_tuned_heapsort759828635
	sim-bpred -bpred 2lev -bpred:2lev 1 2048 10 1 memory_tuned_heapsort759828635
	sim-bpred -bpred 2lev -bpred:2lev 1 4096 10 1 memory_tuned_heapsort759828635
	sslittle-na-sstrix-gcc -Wall -O3 -funroll-loops -finline-functions  -DRANDOM_SIZE=4194304 -DOFFSET=0 -DSORT=memory_tuned_heapsort memory_tuned_heapsort1514530517.c simpleMain.c -o memory_tuned_heapsort759828635
	sim-cache -cache:dl1 dl1:256:32:1:l -cache:dl2 dl2:131072:32:1:l -cache:il1 il1:256:32:1:l -cache:il2 dl2 memory_tuned_heapsort759828635
	sim-cache -cache:dl1 dl1:256:32:1:l -cache:dl2 dl2:65536:32:1:l -cache:il1 il1:256:32:1:l -cache:il2 dl2 memory_tuned_heapsort759828635
	sim-cache -cache:dl1 dl1:1:32:256:l -cache:dl2 dl2:1:32:131072:l -cache:il1 il1:1:32:256:l -cache:il2 dl2 memory_tuned_heapsort759828635
	sim-cache -cache:dl1 dl1:1:32:256:l -cache:dl2 dl2:1:32:65536:l -cache:il1 il1:1:32:256:l -cache:il2 dl2 memory_tuned_heapsort759828635
	sim-bpred -bpred bimod -bpred:bimod 512 memory_tuned_heapsort759828635
	sim-bpred -bpred bimod -bpred:bimod 1024 memory_tuned_heapsort759828635
	sim-bpred -bpred bimod -bpred:bimod 2048 memory_tuned_heapsort759828635
	sim-bpred -bpred 2lev -bpred:2lev 1 512 10 1 memory_tuned_heapsort759828635
	sim-bpred -bpred 2lev -bpred:2lev 1 1024 10 1 memory_tuned_heapsort759828635
	sim-bpred -bpred 2lev -bpred:2lev 1 2048 10 1 memory_tuned_heapsort759828635
	sim-bpred -bpred 2lev -bpred:2lev 1 4096 10 1 memory_tuned_heapsort759828635
