Tue Jun 28 03:48:48 2005
Run as: "./do_simple -c random.org2 -o 2 memory_tuned_heapsort"
-------------------------------------------------------------------------------------------------
sim-cache                                     4096 |         4096 |         4096 |         4096 |         8192 |         8192 |         8192 |         8192 |        16384 |        16384 |        16384 |        16384 |        32768 |        32768 |        32768 |        32768 |        65536 |        65536 |        65536 |        65536 |       131072 |       131072 |       131072 |       131072 |       262144 |       262144 |       262144 |       262144 |       524288 |       524288 |       524288 |       524288 |      1048576 |      1048576 |      1048576 |      1048576 |      2097152 |      2097152 |      2097152 |      2097152 |      4194304 |      4194304 |      4194304 |      4194304 |
-cache:dl1 dl1:256:32:1:l -cache:dl2 dl2:131072:32:1:l -cache:il1 il1:256:32:1:l -cache:il2 dl2
-cache:dl1 dl1:256:32:1:l -cache:dl2 dl2:65536:32:1:l -cache:il1 il1:256:32:1:l -cache:il2 dl2
-cache:dl1 dl1:1:32:256:l -cache:dl2 dl2:1:32:131072:l -cache:il1 il1:1:32:256:l -cache:il2 dl2
-cache:dl1 dl1:1:32:256:l -cache:dl2 dl2:1:32:65536:l -cache:il1 il1:1:32:256:l -cache:il2 dl2
-------------------------------------------------------------------------------------------------
sim_num_insn                               1018925 |      1018925 |      1018925 |      1018925 |      2188382 |      2188382 |      2188382 |      2188382 |      4731876 |      4731876 |      4731876 |      4731876 |     10003916 |     10003916 |     10003916 |     10003916 |     21305029 |     21305029 |     21305029 |     21305029 |     45461151 |     45461151 |     45461151 |     45461151 |     95374351 |     95374351 |     95374351 |     95374351 |    201145430 |    201145430 |    201145430 |    201145430 |    425210434 |    425210434 |    425210434 |    425210434 |    886186079 |    886186079 |    886186079 |    886186079 |   1855408573 |   1855408573 |   1855408573 |   1855408573 |
sim_num_refs                                280466 |       280466 |       280466 |       280466 |       600247 |       600247 |       600247 |       600247 |      1295766 |      1295766 |      1295766 |      1295766 |      2734100 |      2734100 |      2734100 |      2734100 |      5823438 |      5823438 |      5823438 |      5823438 |     12423745 |     12423745 |     12423745 |     12423745 |     26039951 |     26039951 |     26039951 |     26039951 |     54936642 |     54936642 |     54936642 |     54936642 |    116144372 |    116144372 |    116144372 |    116144372 |    241873590 |    241873590 |    241873590 |    241873590 |    506590766 |    506590766 |    506590766 |    506590766 |
sim_elapsed_time                                 1 |            1 |            9 |            5 |            1 |            1 |           15 |            7 |            1 |            1 |           25 |           13 |            3 |            2 |           46 |           23 |            5 |            6 |           85 |           42 |           12 |           13 |          155 |           74 |           26 |           25 |          268 |          107 |           54 |           53 |          377 |          137 |          113 |          113 |          443 |          202 |          236 |          237 |          579 |          338 |          498 |          497 |          866 |          623 |
sim_inst_rate                         1018925.0000 | 1018925.0000 |  113213.8889 |  203785.0000 | 2188382.0000 | 2188382.0000 |  145892.1333 |  312626.0000 | 4731876.0000 | 4731876.0000 |  189275.0400 |  363990.4615 | 3334638.6667 | 5001958.0000 |  217476.4348 |  434952.8696 | 4261005.8000 | 3550838.1667 |  250647.4000 |  507262.5952 | 3788429.2500 | 3497011.6154 |  293297.7484 |  614339.8784 | 3668244.2692 | 3814974.0400 |  355874.4440 |  891349.0748 | 3724915.3704 | 3795196.7925 |  533542.2546 | 1468214.8175 | 3762924.1947 | 3762924.1947 |  959842.9661 | 2105002.1485 | 3755025.7585 | 3739181.7679 | 1530545.9050 | 2621852.3047 | 3725720.0261 | 3733216.4447 | 2142504.1259 | 2978183.9053 |
il1.accesses                               1018925 |      1018925 |      1018925 |      1018925 |      2188382 |      2188382 |      2188382 |      2188382 |      4731876 |      4731876 |      4731876 |      4731876 |     10003916 |     10003916 |     10003916 |     10003916 |     21305029 |     21305029 |     21305029 |     21305029 |     45461151 |     45461151 |     45461151 |     45461151 |     95374351 |     95374351 |     95374351 |     95374351 |    201145430 |    201145430 |    201145430 |    201145430 |    425210434 |    425210434 |    425210434 |    425210434 |    886186079 |    886186079 |    886186079 |    886186079 |   1855408573 |   1855408573 |   1855408573 |   1855408573 |
il1.hits                                   1018397 |      1018397 |      1018485 |      1018485 |      2187814 |      2187814 |      2187923 |      2187923 |      4731307 |      4731307 |      4731421 |      4731421 |     10003349 |     10003349 |     10003456 |     10003456 |     21304462 |     21304462 |     21304569 |     21304569 |     45460584 |     45460584 |     45460692 |     45460692 |     95373784 |     95373784 |     95373892 |     95373892 |    201144863 |    201144863 |    201144971 |    201144971 |    425209831 |    425209831 |    425209941 |    425209941 |    886185476 |    886185476 |    886185586 |    886185586 |   1855407970 |   1855407970 |   1855408080 |   1855408080 |
il1.misses                                     528 |          528 |          440 |          440 |          568 |          568 |          459 |          459 |          569 |          569 |          455 |          455 |          567 |          567 |          460 |          460 |          567 |          567 |          460 |          460 |          567 |          567 |          459 |          459 |          567 |          567 |          459 |          459 |          567 |          567 |          459 |          459 |          603 |          603 |          493 |          493 |          603 |          603 |          493 |          493 |          603 |          603 |          493 |          493 |
il1.replacements                               315 |          315 |          184 |          184 |          347 |          347 |          203 |          203 |          348 |          348 |          199 |          199 |          346 |          346 |          204 |          204 |          346 |          346 |          204 |          204 |          346 |          346 |          203 |          203 |          346 |          346 |          203 |          203 |          346 |          346 |          203 |          203 |          387 |          387 |          237 |          237 |          387 |          387 |          237 |          237 |          387 |          387 |          237 |          237 |
il1.writebacks                                   0 |            0 |            0 |            0 |            0 |            0 |            0 |            0 |            0 |            0 |            0 |            0 |            0 |            0 |            0 |            0 |            0 |            0 |            0 |            0 |            0 |            0 |            0 |            0 |            0 |            0 |            0 |            0 |            0 |            0 |            0 |            0 |            0 |            0 |            0 |            0 |            0 |            0 |            0 |            0 |            0 |            0 |            0 |            0 |
il1.invalidations                                0 |            0 |            0 |            0 |            0 |            0 |            0 |            0 |            0 |            0 |            0 |            0 |            0 |            0 |            0 |            0 |            0 |            0 |            0 |            0 |            0 |            0 |            0 |            0 |            0 |            0 |            0 |            0 |            0 |            0 |            0 |            0 |            0 |            0 |            0 |            0 |            0 |            0 |            0 |            0 |            0 |            0 |            0 |            0 |
il1.miss_rate                               0.0005 |       0.0005 |       0.0004 |       0.0004 |       0.0003 |       0.0003 |       0.0002 |       0.0002 |       0.0001 |       0.0001 |       0.0001 |       0.0001 |       0.0001 |       0.0001 |       0.0000 |       0.0000 |       0.0000 |       0.0000 |       0.0000 |       0.0000 |       0.0000 |       0.0000 |       0.0000 |       0.0000 |       0.0000 |       0.0000 |       0.0000 |       0.0000 |       0.0000 |       0.0000 |       0.0000 |       0.0000 |       0.0000 |       0.0000 |       0.0000 |       0.0000 |       0.0000 |       0.0000 |       0.0000 |       0.0000 |       0.0000 |       0.0000 |       0.0000 |       0.0000 |
il1.repl_rate                               0.0003 |       0.0003 |       0.0002 |       0.0002 |       0.0002 |       0.0002 |       0.0001 |       0.0001 |       0.0001 |       0.0001 |       0.0000 |       0.0000 |       0.0000 |       0.0000 |       0.0000 |       0.0000 |       0.0000 |       0.0000 |       0.0000 |       0.0000 |       0.0000 |       0.0000 |       0.0000 |       0.0000 |       0.0000 |       0.0000 |       0.0000 |       0.0000 |       0.0000 |       0.0000 |       0.0000 |       0.0000 |       0.0000 |       0.0000 |       0.0000 |       0.0000 |       0.0000 |       0.0000 |       0.0000 |       0.0000 |       0.0000 |       0.0000 |       0.0000 |       0.0000 |
il1.wb_rate                                 0.0000 |       0.0000 |       0.0000 |       0.0000 |       0.0000 |       0.0000 |       0.0000 |       0.0000 |       0.0000 |       0.0000 |       0.0000 |       0.0000 |       0.0000 |       0.0000 |       0.0000 |       0.0000 |       0.0000 |       0.0000 |       0.0000 |       0.0000 |       0.0000 |       0.0000 |       0.0000 |       0.0000 |       0.0000 |       0.0000 |       0.0000 |       0.0000 |       0.0000 |       0.0000 |       0.0000 |       0.0000 |       0.0000 |       0.0000 |       0.0000 |       0.0000 |       0.0000 |       0.0000 |       0.0000 |       0.0000 |       0.0000 |       0.0000 |       0.0000 |       0.0000 |
il1.inv_rate                                0.0000 |       0.0000 |       0.0000 |       0.0000 |       0.0000 |       0.0000 |       0.0000 |       0.0000 |       0.0000 |       0.0000 |       0.0000 |       0.0000 |       0.0000 |       0.0000 |       0.0000 |       0.0000 |       0.0000 |       0.0000 |       0.0000 |       0.0000 |       0.0000 |       0.0000 |       0.0000 |       0.0000 |       0.0000 |       0.0000 |       0.0000 |       0.0000 |       0.0000 |       0.0000 |       0.0000 |       0.0000 |       0.0000 |       0.0000 |       0.0000 |       0.0000 |       0.0000 |       0.0000 |       0.0000 |       0.0000 |       0.0000 |       0.0000 |       0.0000 |       0.0000 |
dl1.accesses                                296932 |       296932 |       296932 |       296932 |       633097 |       633097 |       633097 |       633097 |      1361384 |      1361384 |      1361384 |      1361384 |      2865254 |      2865254 |      2865254 |      2865254 |      6085664 |      6085664 |      6085664 |      6085664 |     12948115 |     12948115 |     12948115 |     12948115 |     27088609 |     27088609 |     27088609 |     27088609 |     57033876 |     57033876 |     57033876 |     57033876 |    120338758 |    120338758 |    120338758 |    120338758 |    250262280 |    250262280 |    250262280 |    250262280 |    523368064 |    523368064 |    523368064 |    523368064 |
dl1.hits                                    292388 |       292388 |       292957 |       292957 |       621269 |       621269 |       622817 |       622817 |      1332032 |      1332032 |      1334836 |      1334836 |      2792179 |      2792179 |      2799716 |      2799716 |      5912321 |      5912321 |      5928427 |      5928427 |     12551353 |     12551353 |     12583034 |     12583034 |     26183935 |     26183935 |     26255699 |     26255699 |     55014984 |     55014984 |     55163801 |     55163801 |    115900775 |    115900775 |    116205348 |    116205348 |    240542794 |    240542794 |    241196469 |    241196469 |    502318592 |    502318592 |    503676017 |    503676017 |
dl1.misses                                    4544 |         4544 |         3975 |         3975 |        11828 |        11828 |        10280 |        10280 |        29352 |        29352 |        26548 |        26548 |        73075 |        73075 |        65538 |        65538 |       173343 |       173343 |       157237 |       157237 |       396762 |       396762 |       365081 |       365081 |       904674 |       904674 |       832910 |       832910 |      2018892 |      2018892 |      1870075 |      1870075 |      4437983 |      4437983 |      4133410 |      4133410 |      9719486 |      9719486 |      9065811 |      9065811 |     21049472 |     21049472 |     19692047 |     19692047 |
dl1.replacements                              4288 |         4288 |         3719 |         3719 |        11572 |        11572 |        10024 |        10024 |        29096 |        29096 |        26292 |        26292 |        72819 |        72819 |        65282 |        65282 |       173087 |       173087 |       156981 |       156981 |       396506 |       396506 |       364825 |       364825 |       904418 |       904418 |       832654 |       832654 |      2018636 |      2018636 |      1869819 |      1869819 |      4437727 |      4437727 |      4133154 |      4133154 |      9719230 |      9719230 |      9065555 |      9065555 |     21049216 |     21049216 |     19691791 |     19691791 |
dl1.writebacks                                3650 |         3650 |         3153 |         3153 |        10203 |        10203 |         8802 |         8802 |        26189 |        26189 |        23715 |        23715 |        66532 |        66532 |        59771 |        59771 |       160057 |       160057 |       145718 |       145718 |       369876 |       369876 |       341957 |       341957 |       849644 |       849644 |       786220 |       786220 |      1907328 |      1907328 |      1776993 |      1776993 |      4210088 |      4210088 |      3946736 |      3946736 |      9259876 |      9259876 |      8692853 |      8692853 |     20120647 |     20120647 |     18947234 |     18947234 |
dl1.invalidations                                0 |            0 |            0 |            0 |            0 |            0 |            0 |            0 |            0 |            0 |            0 |            0 |            0 |            0 |            0 |            0 |            0 |            0 |            0 |            0 |            0 |            0 |            0 |            0 |            0 |            0 |            0 |            0 |            0 |            0 |            0 |            0 |            0 |            0 |            0 |            0 |            0 |            0 |            0 |            0 |            0 |            0 |            0 |            0 |
dl1.miss_rate                               0.0153 |       0.0153 |       0.0134 |       0.0134 |       0.0187 |       0.0187 |       0.0162 |       0.0162 |       0.0216 |       0.0216 |       0.0195 |       0.0195 |       0.0255 |       0.0255 |       0.0229 |       0.0229 |       0.0285 |       0.0285 |       0.0258 |       0.0258 |       0.0306 |       0.0306 |       0.0282 |       0.0282 |       0.0334 |       0.0334 |       0.0307 |       0.0307 |       0.0354 |       0.0354 |       0.0328 |       0.0328 |       0.0369 |       0.0369 |       0.0343 |       0.0343 |       0.0388 |       0.0388 |       0.0362 |       0.0362 |       0.0402 |       0.0402 |       0.0376 |       0.0376 |
dl1.repl_rate                               0.0144 |       0.0144 |       0.0125 |       0.0125 |       0.0183 |       0.0183 |       0.0158 |       0.0158 |       0.0214 |       0.0214 |       0.0193 |       0.0193 |       0.0254 |       0.0254 |       0.0228 |       0.0228 |       0.0284 |       0.0284 |       0.0258 |       0.0258 |       0.0306 |       0.0306 |       0.0282 |       0.0282 |       0.0334 |       0.0334 |       0.0307 |       0.0307 |       0.0354 |       0.0354 |       0.0328 |       0.0328 |       0.0369 |       0.0369 |       0.0343 |       0.0343 |       0.0388 |       0.0388 |       0.0362 |       0.0362 |       0.0402 |       0.0402 |       0.0376 |       0.0376 |
dl1.wb_rate                                 0.0123 |       0.0123 |       0.0106 |       0.0106 |       0.0161 |       0.0161 |       0.0139 |       0.0139 |       0.0192 |       0.0192 |       0.0174 |       0.0174 |       0.0232 |       0.0232 |       0.0209 |       0.0209 |       0.0263 |       0.0263 |       0.0239 |       0.0239 |       0.0286 |       0.0286 |       0.0264 |       0.0264 |       0.0314 |       0.0314 |       0.0290 |       0.0290 |       0.0334 |       0.0334 |       0.0312 |       0.0312 |       0.0350 |       0.0350 |       0.0328 |       0.0328 |       0.0370 |       0.0370 |       0.0347 |       0.0347 |       0.0384 |       0.0384 |       0.0362 |       0.0362 |
dl1.inv_rate                                0.0000 |       0.0000 |       0.0000 |       0.0000 |       0.0000 |       0.0000 |       0.0000 |       0.0000 |       0.0000 |       0.0000 |       0.0000 |       0.0000 |       0.0000 |       0.0000 |       0.0000 |       0.0000 |       0.0000 |       0.0000 |       0.0000 |       0.0000 |       0.0000 |       0.0000 |       0.0000 |       0.0000 |       0.0000 |       0.0000 |       0.0000 |       0.0000 |       0.0000 |       0.0000 |       0.0000 |       0.0000 |       0.0000 |       0.0000 |       0.0000 |       0.0000 |       0.0000 |       0.0000 |       0.0000 |       0.0000 |       0.0000 |       0.0000 |       0.0000 |       0.0000 |
dl2.accesses                                  8722 |         8722 |         7568 |         7568 |        22599 |        22599 |        19541 |        19541 |        56110 |        56110 |        50718 |        50718 |       140174 |       140174 |       125769 |       125769 |       333967 |       333967 |       303415 |       303415 |       767205 |       767205 |       707497 |       707497 |      1754885 |      1754885 |      1619589 |      1619589 |      3926787 |      3926787 |      3647527 |      3647527 |      8648674 |      8648674 |      8080639 |      8080639 |     18979965 |     18979965 |     17759157 |     17759157 |     41170722 |     41170722 |     38639774 |     38639774 |
dl2.hits                                      6809 |         6809 |         5700 |         5700 |        19660 |        19660 |        16658 |        16658 |        51121 |        51121 |        45790 |        45790 |       131082 |       131082 |       116741 |       116741 |       316683 |       316683 |       286195 |       286195 |       733534 |       733534 |       673894 |       673894 |      1688448 |      1685937 |      1553218 |      1529346 |      3792305 |      3570683 |      3473317 |      3322548 |      7934471 |      7662799 |      7430827 |      7178574 |     17007263 |     16248160 |     15956620 |     15243506 |     35703516 |     34182168 |     33609312 |     31977425 |
dl2.misses                                    1913 |         1913 |         1868 |         1868 |         2939 |         2939 |         2883 |         2883 |         4989 |         4989 |         4928 |         4928 |         9092 |         9092 |         9028 |         9028 |        17284 |        17284 |        17220 |        17220 |        33671 |        33671 |        33603 |        33603 |        66437 |        68948 |        66371 |        90243 |       134482 |       356104 |       174210 |       324979 |       714203 |       985875 |       649812 |       902065 |      1972702 |      2731805 |      1802537 |      2515651 |      5467206 |      6988554 |      5030462 |      6662349 |
dl2.replacements                               273 |          273 |            0 |            0 |          270 |          270 |            0 |            0 |          296 |          296 |            0 |            0 |          302 |          302 |            0 |            0 |          302 |          302 |            0 |            0 |          306 |          306 |            0 |            0 |          304 |         4490 |            0 |        24707 |         4488 |       290568 |        43138 |       259443 |       583131 |       920339 |       518740 |       836529 |      1841630 |      2666269 |      1671465 |      2450115 |      5336134 |      6923018 |      4899390 |      6596813 |
dl2.writebacks                                 150 |          150 |            0 |            0 |          145 |          145 |            0 |            0 |          165 |          165 |            0 |            0 |          170 |          170 |            0 |            0 |          170 |          170 |            0 |            0 |          170 |          170 |            0 |            0 |          170 |         4356 |            0 |        23968 |         4356 |       227011 |        42399 |       193122 |       455123 |       779656 |       386227 |       694229 |      1560623 |      2356756 |      1387266 |      2136385 |      4717678 |      6254684 |      4273207 |      5924163 |
dl2.invalidations                                0 |            0 |            0 |            0 |            0 |            0 |            0 |            0 |            0 |            0 |            0 |            0 |            0 |            0 |            0 |            0 |            0 |            0 |            0 |            0 |            0 |            0 |            0 |            0 |            0 |            0 |            0 |            0 |            0 |            0 |            0 |            0 |            0 |            0 |            0 |            0 |            0 |            0 |            0 |            0 |            0 |            0 |            0 |            0 |
dl2.miss_rate                               0.2193 |       0.2193 |       0.2468 |       0.2468 |       0.1301 |       0.1301 |       0.1475 |       0.1475 |       0.0889 |       0.0889 |       0.0972 |       0.0972 |       0.0649 |       0.0649 |       0.0718 |       0.0718 |       0.0518 |       0.0518 |       0.0568 |       0.0568 |       0.0439 |       0.0439 |       0.0475 |       0.0475 |       0.0379 |       0.0393 |       0.0410 |       0.0557 |       0.0342 |       0.0907 |       0.0478 |       0.0891 |       0.0826 |       0.1140 |       0.0804 |       0.1116 |       0.1039 |       0.1439 |       0.1015 |       0.1417 |       0.1328 |       0.1697 |       0.1302 |       0.1724 |
dl2.repl_rate                               0.0313 |       0.0313 |       0.0000 |       0.0000 |       0.0119 |       0.0119 |       0.0000 |       0.0000 |       0.0053 |       0.0053 |       0.0000 |       0.0000 |       0.0022 |       0.0022 |       0.0000 |       0.0000 |       0.0009 |       0.0009 |       0.0000 |       0.0000 |       0.0004 |       0.0004 |       0.0000 |       0.0000 |       0.0002 |       0.0026 |       0.0000 |       0.0153 |       0.0011 |       0.0740 |       0.0118 |       0.0711 |       0.0674 |       0.1064 |       0.0642 |       0.1035 |       0.0970 |       0.1405 |       0.0941 |       0.1380 |       0.1296 |       0.1682 |       0.1268 |       0.1707 |
dl2.wb_rate                                 0.0172 |       0.0172 |       0.0000 |       0.0000 |       0.0064 |       0.0064 |       0.0000 |       0.0000 |       0.0029 |       0.0029 |       0.0000 |       0.0000 |       0.0012 |       0.0012 |       0.0000 |       0.0000 |       0.0005 |       0.0005 |       0.0000 |       0.0000 |       0.0002 |       0.0002 |       0.0000 |       0.0000 |       0.0001 |       0.0025 |       0.0000 |       0.0148 |       0.0011 |       0.0578 |       0.0116 |       0.0529 |       0.0526 |       0.0901 |       0.0478 |       0.0859 |       0.0822 |       0.1242 |       0.0781 |       0.1203 |       0.1146 |       0.1519 |       0.1106 |       0.1533 |
dl2.inv_rate                                0.0000 |       0.0000 |       0.0000 |       0.0000 |       0.0000 |       0.0000 |       0.0000 |       0.0000 |       0.0000 |       0.0000 |       0.0000 |       0.0000 |       0.0000 |       0.0000 |       0.0000 |       0.0000 |       0.0000 |       0.0000 |       0.0000 |       0.0000 |       0.0000 |       0.0000 |       0.0000 |       0.0000 |       0.0000 |       0.0000 |       0.0000 |       0.0000 |       0.0000 |       0.0000 |       0.0000 |       0.0000 |       0.0000 |       0.0000 |       0.0000 |       0.0000 |       0.0000 |       0.0000 |       0.0000 |       0.0000 |       0.0000 |       0.0000 |       0.0000 |       0.0000 |
itlb.accesses                              1018925 |      1018925 |      1018925 |      1018925 |      2188382 |      2188382 |      2188382 |      2188382 |      4731876 |      4731876 |      4731876 |      4731876 |     10003916 |     10003916 |     10003916 |     10003916 |     21305029 |     21305029 |     21305029 |     21305029 |     45461151 |     45461151 |     45461151 |     45461151 |     95374351 |     95374351 |     95374351 |     95374351 |    201145430 |    201145430 |    201145430 |    201145430 |    425210434 |    425210434 |    425210434 |    425210434 |    886186079 |    886186079 |    886186079 |    886186079 |   1855408573 |   1855408573 |   1855408573 |   1855408573 |
itlb.hits                                  1018915 |      1018915 |      1018915 |      1018915 |      2188372 |      2188372 |      2188372 |      2188372 |      4731866 |      4731866 |      4731866 |      4731866 |     10003906 |     10003906 |     10003906 |     10003906 |     21305019 |     21305019 |     21305019 |     21305019 |     45461141 |     45461141 |     45461141 |     45461141 |     95374341 |     95374341 |     95374341 |     95374341 |    201145420 |    201145420 |    201145420 |    201145420 |    425210424 |    425210424 |    425210424 |    425210424 |    886186069 |    886186069 |    886186069 |    886186069 |   1855408563 |   1855408563 |   1855408563 |   1855408563 |
itlb.misses                                     10 |           10 |           10 |           10 |           10 |           10 |           10 |           10 |           10 |           10 |           10 |           10 |           10 |           10 |           10 |           10 |           10 |           10 |           10 |           10 |           10 |           10 |           10 |           10 |           10 |           10 |           10 |           10 |           10 |           10 |           10 |           10 |           10 |           10 |           10 |           10 |           10 |           10 |           10 |           10 |           10 |           10 |           10 |           10 |
itlb.replacements                                0 |            0 |            0 |            0 |            0 |            0 |            0 |            0 |            0 |            0 |            0 |            0 |            0 |            0 |            0 |            0 |            0 |            0 |            0 |            0 |            0 |            0 |            0 |            0 |            0 |            0 |            0 |            0 |            0 |            0 |            0 |            0 |            0 |            0 |            0 |            0 |            0 |            0 |            0 |            0 |            0 |            0 |            0 |            0 |
itlb.writebacks                                  0 |            0 |            0 |            0 |            0 |            0 |            0 |            0 |            0 |            0 |            0 |            0 |            0 |            0 |            0 |            0 |            0 |            0 |            0 |            0 |            0 |            0 |            0 |            0 |            0 |            0 |            0 |            0 |            0 |            0 |            0 |            0 |            0 |            0 |            0 |            0 |            0 |            0 |            0 |            0 |            0 |            0 |            0 |            0 |
itlb.invalidations                               0 |            0 |            0 |            0 |            0 |            0 |            0 |            0 |            0 |            0 |            0 |            0 |            0 |            0 |            0 |            0 |            0 |            0 |            0 |            0 |            0 |            0 |            0 |            0 |            0 |            0 |            0 |            0 |            0 |            0 |            0 |            0 |            0 |            0 |            0 |            0 |            0 |            0 |            0 |            0 |            0 |            0 |            0 |            0 |
itlb.miss_rate                              0.0000 |       0.0000 |       0.0000 |       0.0000 |       0.0000 |       0.0000 |       0.0000 |       0.0000 |       0.0000 |       0.0000 |       0.0000 |       0.0000 |       0.0000 |       0.0000 |       0.0000 |       0.0000 |       0.0000 |       0.0000 |       0.0000 |       0.0000 |       0.0000 |       0.0000 |       0.0000 |       0.0000 |       0.0000 |       0.0000 |       0.0000 |       0.0000 |       0.0000 |       0.0000 |       0.0000 |       0.0000 |       0.0000 |       0.0000 |       0.0000 |       0.0000 |       0.0000 |       0.0000 |       0.0000 |       0.0000 |       0.0000 |       0.0000 |       0.0000 |       0.0000 |
itlb.repl_rate                              0.0000 |       0.0000 |       0.0000 |       0.0000 |       0.0000 |       0.0000 |       0.0000 |       0.0000 |       0.0000 |       0.0000 |       0.0000 |       0.0000 |       0.0000 |       0.0000 |       0.0000 |       0.0000 |       0.0000 |       0.0000 |       0.0000 |       0.0000 |       0.0000 |       0.0000 |       0.0000 |       0.0000 |       0.0000 |       0.0000 |       0.0000 |       0.0000 |       0.0000 |       0.0000 |       0.0000 |       0.0000 |       0.0000 |       0.0000 |       0.0000 |       0.0000 |       0.0000 |       0.0000 |       0.0000 |       0.0000 |       0.0000 |       0.0000 |       0.0000 |       0.0000 |
itlb.wb_rate                                0.0000 |       0.0000 |       0.0000 |       0.0000 |       0.0000 |       0.0000 |       0.0000 |       0.0000 |       0.0000 |       0.0000 |       0.0000 |       0.0000 |       0.0000 |       0.0000 |       0.0000 |       0.0000 |       0.0000 |       0.0000 |       0.0000 |       0.0000 |       0.0000 |       0.0000 |       0.0000 |       0.0000 |       0.0000 |       0.0000 |       0.0000 |       0.0000 |       0.0000 |       0.0000 |       0.0000 |       0.0000 |       0.0000 |       0.0000 |       0.0000 |       0.0000 |       0.0000 |       0.0000 |       0.0000 |       0.0000 |       0.0000 |       0.0000 |       0.0000 |       0.0000 |
itlb.inv_rate                               0.0000 |       0.0000 |       0.0000 |       0.0000 |       0.0000 |       0.0000 |       0.0000 |       0.0000 |       0.0000 |       0.0000 |       0.0000 |       0.0000 |       0.0000 |       0.0000 |       0.0000 |       0.0000 |       0.0000 |       0.0000 |       0.0000 |       0.0000 |       0.0000 |       0.0000 |       0.0000 |       0.0000 |       0.0000 |       0.0000 |       0.0000 |       0.0000 |       0.0000 |       0.0000 |       0.0000 |       0.0000 |       0.0000 |       0.0000 |       0.0000 |       0.0000 |       0.0000 |       0.0000 |       0.0000 |       0.0000 |       0.0000 |       0.0000 |       0.0000 |       0.0000 |
dtlb.accesses                               296932 |       296932 |       296932 |       296932 |       633097 |       633097 |       633097 |       633097 |      1361384 |      1361384 |      1361384 |      1361384 |      2865254 |      2865254 |      2865254 |      2865254 |      6085664 |      6085664 |      6085664 |      6085664 |     12948115 |     12948115 |     12948115 |     12948115 |     27088609 |     27088609 |     27088609 |     27088609 |     57033876 |     57033876 |     57033876 |     57033876 |    120338758 |    120338758 |    120338758 |    120338758 |    250262280 |    250262280 |    250262280 |    250262280 |    523368064 |    523368064 |    523368064 |    523368064 |
dtlb.hits                                   296916 |       296916 |       296916 |       296916 |       633073 |       633073 |       633073 |       633073 |      1361344 |      1361344 |      1361344 |      1361344 |      2865182 |      2865182 |      2865182 |      2865182 |      6085517 |      6085517 |      6085517 |      6085517 |     12947319 |     12947319 |     12947319 |     12947319 |     27042459 |     27042459 |     27042459 |     27042459 |     56775953 |     56775953 |     56775953 |     56775953 |    119414623 |    119414623 |    119414623 |    119414623 |    247572612 |    247572612 |    247572612 |    247572612 |    516264386 |    516264386 |    516264386 |    516264386 |
dtlb.misses                                     16 |           16 |           16 |           16 |           24 |           24 |           24 |           24 |           40 |           40 |           40 |           40 |           72 |           72 |           72 |           72 |          147 |          147 |          147 |          147 |          796 |          796 |          796 |          796 |        46150 |        46150 |        46150 |        46150 |       257923 |       257923 |       257923 |       257923 |       924135 |       924135 |       924135 |       924135 |      2689668 |      2689668 |      2689668 |      2689668 |      7103678 |      7103678 |      7103678 |      7103678 |
dtlb.replacements                                0 |            0 |            0 |            0 |            0 |            0 |            0 |            0 |            0 |            0 |            0 |            0 |            0 |            0 |            0 |            0 |           19 |           19 |           19 |           19 |          668 |          668 |          668 |          668 |        46022 |        46022 |        46022 |        46022 |       257795 |       257795 |       257795 |       257795 |       924007 |       924007 |       924007 |       924007 |      2689540 |      2689540 |      2689540 |      2689540 |      7103550 |      7103550 |      7103550 |      7103550 |
dtlb.writebacks                                  0 |            0 |            0 |            0 |            0 |            0 |            0 |            0 |            0 |            0 |            0 |            0 |            0 |            0 |            0 |            0 |           16 |           16 |           16 |           16 |          545 |          545 |          545 |          545 |        44506 |        44506 |        44506 |        44506 |       248224 |       248224 |       248224 |       248224 |       891447 |       891447 |       891447 |       891447 |      2605564 |      2605564 |      2605564 |      2605564 |      6912456 |      6912456 |      6912456 |      6912456 |
dtlb.invalidations                               0 |            0 |            0 |            0 |            0 |            0 |            0 |            0 |            0 |            0 |            0 |            0 |            0 |            0 |            0 |            0 |            0 |            0 |            0 |            0 |            0 |            0 |            0 |            0 |            0 |            0 |            0 |            0 |            0 |            0 |            0 |            0 |            0 |            0 |            0 |            0 |            0 |            0 |            0 |            0 |            0 |            0 |            0 |            0 |
dtlb.miss_rate                              0.0001 |       0.0001 |       0.0001 |       0.0001 |       0.0000 |       0.0000 |       0.0000 |       0.0000 |       0.0000 |       0.0000 |       0.0000 |       0.0000 |       0.0000 |       0.0000 |       0.0000 |       0.0000 |       0.0000 |       0.0000 |       0.0000 |       0.0000 |       0.0001 |       0.0001 |       0.0001 |       0.0001 |       0.0017 |       0.0017 |       0.0017 |       0.0017 |       0.0045 |       0.0045 |       0.0045 |       0.0045 |       0.0077 |       0.0077 |       0.0077 |       0.0077 |       0.0107 |       0.0107 |       0.0107 |       0.0107 |       0.0136 |       0.0136 |       0.0136 |       0.0136 |
dtlb.repl_rate                              0.0000 |       0.0000 |       0.0000 |       0.0000 |       0.0000 |       0.0000 |       0.0000 |       0.0000 |       0.0000 |       0.0000 |       0.0000 |       0.0000 |       0.0000 |       0.0000 |       0.0000 |       0.0000 |       0.0000 |       0.0000 |       0.0000 |       0.0000 |       0.0001 |       0.0001 |       0.0001 |       0.0001 |       0.0017 |       0.0017 |       0.0017 |       0.0017 |       0.0045 |       0.0045 |       0.0045 |       0.0045 |       0.0077 |       0.0077 |       0.0077 |       0.0077 |       0.0107 |       0.0107 |       0.0107 |       0.0107 |       0.0136 |       0.0136 |       0.0136 |       0.0136 |
dtlb.wb_rate                                0.0000 |       0.0000 |       0.0000 |       0.0000 |       0.0000 |       0.0000 |       0.0000 |       0.0000 |       0.0000 |       0.0000 |       0.0000 |       0.0000 |       0.0000 |       0.0000 |       0.0000 |       0.0000 |       0.0000 |       0.0000 |       0.0000 |       0.0000 |       0.0000 |       0.0000 |       0.0000 |       0.0000 |       0.0016 |       0.0016 |       0.0016 |       0.0016 |       0.0044 |       0.0044 |       0.0044 |       0.0044 |       0.0074 |       0.0074 |       0.0074 |       0.0074 |       0.0104 |       0.0104 |       0.0104 |       0.0104 |       0.0132 |       0.0132 |       0.0132 |       0.0132 |
dtlb.inv_rate                               0.0000 |       0.0000 |       0.0000 |       0.0000 |       0.0000 |       0.0000 |       0.0000 |       0.0000 |       0.0000 |       0.0000 |       0.0000 |       0.0000 |       0.0000 |       0.0000 |       0.0000 |       0.0000 |       0.0000 |       0.0000 |       0.0000 |       0.0000 |       0.0000 |       0.0000 |       0.0000 |       0.0000 |       0.0000 |       0.0000 |       0.0000 |       0.0000 |       0.0000 |       0.0000 |       0.0000 |       0.0000 |       0.0000 |       0.0000 |       0.0000 |       0.0000 |       0.0000 |       0.0000 |       0.0000 |       0.0000 |       0.0000 |       0.0000 |       0.0000 |       0.0000 |
ld_text_base                            0x00400000 |   0x00400000 |   0x00400000 |   0x00400000 |   0x00400000 |   0x00400000 |   0x00400000 |   0x00400000 |   0x00400000 |   0x00400000 |   0x00400000 |   0x00400000 |   0x00400000 |   0x00400000 |   0x00400000 |   0x00400000 |   0x00400000 |   0x00400000 |   0x00400000 |   0x00400000 |   0x00400000 |   0x00400000 |   0x00400000 |   0x00400000 |   0x00400000 |   0x00400000 |   0x00400000 |   0x00400000 |   0x00400000 |   0x00400000 |   0x00400000 |   0x00400000 |   0x00400000 |   0x00400000 |   0x00400000 |   0x00400000 |   0x00400000 |   0x00400000 |   0x00400000 |   0x00400000 |   0x00400000 |   0x00400000 |   0x00400000 |   0x00400000 |
ld_text_size                                 74528 |        74528 |        74528 |        74528 |        74560 |        74560 |        74560 |        74560 |        74576 |        74576 |        74576 |        74576 |        74592 |        74592 |        74592 |        74592 |        74592 |        74592 |        74592 |        74592 |        74592 |        74592 |        74592 |        74592 |        74592 |        74592 |        74592 |        74592 |        74592 |        74592 |        74592 |        74592 |        74592 |        74592 |        74592 |        74592 |        74592 |        74592 |        74592 |        74592 |        74592 |        74592 |        74592 |        74592 |
ld_data_base                            0x10000000 |   0x10000000 |   0x10000000 |   0x10000000 |   0x10000000 |   0x10000000 |   0x10000000 |   0x10000000 |   0x10000000 |   0x10000000 |   0x10000000 |   0x10000000 |   0x10000000 |   0x10000000 |   0x10000000 |   0x10000000 |   0x10000000 |   0x10000000 |   0x10000000 |   0x10000000 |   0x10000000 |   0x10000000 |   0x10000000 |   0x10000000 |   0x10000000 |   0x10000000 |   0x10000000 |   0x10000000 |   0x10000000 |   0x10000000 |   0x10000000 |   0x10000000 |   0x10000000 |   0x10000000 |   0x10000000 |   0x10000000 |   0x10000000 |   0x10000000 |   0x10000000 |   0x10000000 |   0x10000000 |   0x10000000 |   0x10000000 |   0x10000000 |
ld_data_size                                  8192 |         8192 |         8192 |         8192 |         8192 |         8192 |         8192 |         8192 |         8192 |         8192 |         8192 |         8192 |         8192 |         8192 |         8192 |         8192 |         8192 |         8192 |         8192 |         8192 |         8192 |         8192 |         8192 |         8192 |         8192 |         8192 |         8192 |         8192 |         8192 |         8192 |         8192 |         8192 |         8192 |         8192 |         8192 |         8192 |         8192 |         8192 |         8192 |         8192 |         8192 |         8192 |         8192 |         8192 |
ld_stack_base                           0x7fffc000 |   0x7fffc000 |   0x7fffc000 |   0x7fffc000 |   0x7fffc000 |   0x7fffc000 |   0x7fffc000 |   0x7fffc000 |   0x7fffc000 |   0x7fffc000 |   0x7fffc000 |   0x7fffc000 |   0x7fffc000 |   0x7fffc000 |   0x7fffc000 |   0x7fffc000 |   0x7fffc000 |   0x7fffc000 |   0x7fffc000 |   0x7fffc000 |   0x7fffc000 |   0x7fffc000 |   0x7fffc000 |   0x7fffc000 |   0x7fffc000 |   0x7fffc000 |   0x7fffc000 |   0x7fffc000 |   0x7fffc000 |   0x7fffc000 |   0x7fffc000 |   0x7fffc000 |   0x7fffc000 |   0x7fffc000 |   0x7fffc000 |   0x7fffc000 |   0x7fffc000 |   0x7fffc000 |   0x7fffc000 |   0x7fffc000 |   0x7fffc000 |   0x7fffc000 |   0x7fffc000 |   0x7fffc000 |
ld_stack_size                                16384 |        16384 |        16384 |        16384 |        16384 |        16384 |        16384 |        16384 |        16384 |        16384 |        16384 |        16384 |        16384 |        16384 |        16384 |        16384 |        16384 |        16384 |        16384 |        16384 |        16384 |        16384 |        16384 |        16384 |        16384 |        16384 |        16384 |        16384 |        16384 |        16384 |        16384 |        16384 |        16384 |        16384 |        16384 |        16384 |        16384 |        16384 |        16384 |        16384 |        16384 |        16384 |        16384 |        16384 |
ld_prog_entry                           0x00400140 |   0x00400140 |   0x00400140 |   0x00400140 |   0x00400140 |   0x00400140 |   0x00400140 |   0x00400140 |   0x00400140 |   0x00400140 |   0x00400140 |   0x00400140 |   0x00400140 |   0x00400140 |   0x00400140 |   0x00400140 |   0x00400140 |   0x00400140 |   0x00400140 |   0x00400140 |   0x00400140 |   0x00400140 |   0x00400140 |   0x00400140 |   0x00400140 |   0x00400140 |   0x00400140 |   0x00400140 |   0x00400140 |   0x00400140 |   0x00400140 |   0x00400140 |   0x00400140 |   0x00400140 |   0x00400140 |   0x00400140 |   0x00400140 |   0x00400140 |   0x00400140 |   0x00400140 |   0x00400140 |   0x00400140 |   0x00400140 |   0x00400140 |
ld_environ_base                         0x7fff8000 |   0x7fff8000 |   0x7fff8000 |   0x7fff8000 |   0x7fff8000 |   0x7fff8000 |   0x7fff8000 |   0x7fff8000 |   0x7fff8000 |   0x7fff8000 |   0x7fff8000 |   0x7fff8000 |   0x7fff8000 |   0x7fff8000 |   0x7fff8000 |   0x7fff8000 |   0x7fff8000 |   0x7fff8000 |   0x7fff8000 |   0x7fff8000 |   0x7fff8000 |   0x7fff8000 |   0x7fff8000 |   0x7fff8000 |   0x7fff8000 |   0x7fff8000 |   0x7fff8000 |   0x7fff8000 |   0x7fff8000 |   0x7fff8000 |   0x7fff8000 |   0x7fff8000 |   0x7fff8000 |   0x7fff8000 |   0x7fff8000 |   0x7fff8000 |   0x7fff8000 |   0x7fff8000 |   0x7fff8000 |   0x7fff8000 |   0x7fff8000 |   0x7fff8000 |   0x7fff8000 |   0x7fff8000 |
ld_target_big_endian                             0 |            0 |            0 |            0 |            0 |            0 |            0 |            0 |            0 |            0 |            0 |            0 |            0 |            0 |            0 |            0 |            0 |            0 |            0 |            0 |            0 |            0 |            0 |            0 |            0 |            0 |            0 |            0 |            0 |            0 |            0 |            0 |            0 |            0 |            0 |            0 |            0 |            0 |            0 |            0 |            0 |            0 |            0 |            0 |
mem.page_count                                  35 |           35 |           35 |           35 |           43 |           43 |           43 |           43 |           59 |           59 |           59 |           59 |           91 |           91 |           91 |           91 |          155 |          155 |          155 |          155 |          283 |          283 |          283 |          283 |          539 |          539 |          539 |          539 |         1051 |         1051 |         1051 |         1051 |         2081 |         2081 |         2081 |         2081 |         4135 |         4135 |         4135 |         4135 |         8243 |         8243 |         8243 |         8243 |
mem.page_mem                                  140k |         140k |         140k |         140k |         172k |         172k |         172k |         172k |         236k |         236k |         236k |         236k |         364k |         364k |         364k |         364k |         620k |         620k |         620k |         620k |        1132k |        1132k |        1132k |        1132k |        2156k |        2156k |        2156k |        2156k |        4204k |        4204k |        4204k |        4204k |        8324k |        8324k |        8324k |        8324k |       16540k |       16540k |       16540k |       16540k |       32972k |       32972k |       32972k |       32972k |
mem.ptab_misses                                 35 |           35 |           35 |           35 |           43 |           43 |           43 |           43 |           59 |           59 |           59 |           59 |           91 |           91 |           91 |           91 |          155 |          155 |          155 |          155 |          283 |          283 |          283 |          283 |          539 |          539 |          539 |          539 |         1051 |         1051 |         1051 |         1051 |         8968 |         8968 |         8968 |         8968 |        34396 |        34396 |        34396 |        34396 |        60354 |        60354 |        60354 |        60354 |
mem.ptab_accesses                          5131322 |      5131322 |      5131322 |      5131322 |     10481672 |     10481672 |     10481672 |     10481672 |     22112318 |     22112318 |     22112318 |     22112318 |     46208314 |     46208314 |     46208314 |     46208314 |     97853586 |     97853586 |     97853586 |     97853586 |    208202976 |    208202976 |    208202976 |    208202976 |    436136764 |    436136764 |    436136764 |    436136764 |    919111614 |    919111614 |    919111614 |    919111614 |   1941981394 |   1941981394 |   1941981394 |   1941981394 |   4045731018 |   4045731018 |   4045731018 |   4045731018 |   8468832562 |   8468832562 |   8468832562 |   8468832562 |
mem.ptab_miss_rate                          0.0000 |       0.0000 |       0.0000 |       0.0000 |       0.0000 |       0.0000 |       0.0000 |       0.0000 |       0.0000 |       0.0000 |       0.0000 |       0.0000 |       0.0000 |       0.0000 |       0.0000 |       0.0000 |       0.0000 |       0.0000 |       0.0000 |       0.0000 |       0.0000 |       0.0000 |       0.0000 |       0.0000 |       0.0000 |       0.0000 |       0.0000 |       0.0000 |       0.0000 |       0.0000 |       0.0000 |       0.0000 |       0.0000 |       0.0000 |       0.0000 |       0.0000 |       0.0000 |       0.0000 |       0.0000 |       0.0000 |       0.0000 |       0.0000 |       0.0000 |       0.0000 |
-------------------------------------------------------------------------------------------------
sim-bpred                                     4096 |         4096 |         4096 |         4096 |         4096 |         4096 |         4096 |         8192 |         8192 |         8192 |         8192 |         8192 |         8192 |         8192 |        16384 |        16384 |        16384 |        16384 |        16384 |        16384 |        16384 |        32768 |        32768 |        32768 |        32768 |        32768 |        32768 |        32768 |        65536 |        65536 |        65536 |        65536 |        65536 |        65536 |        65536 |       131072 |       131072 |       131072 |       131072 |       131072 |       131072 |       131072 |       262144 |       262144 |       262144 |       262144 |       262144 |       262144 |       262144 |       524288 |       524288 |       524288 |       524288 |       524288 |       524288 |       524288 |      1048576 |      1048576 |      1048576 |      1048576 |      1048576 |      1048576 |      1048576 |      2097152 |      2097152 |      2097152 |      2097152 |      2097152 |      2097152 |      2097152 |      4194304 |      4194304 |      4194304 |      4194304 |      4194304 |      4194304 |      4194304 |
-bpred bimod -bpred:bimod 512
-bpred bimod -bpred:bimod 1024
-bpred bimod -bpred:bimod 2048
-bpred 2lev -bpred:2lev 1 512 10 1
-bpred 2lev -bpred:2lev 1 1024 10 1
-bpred 2lev -bpred:2lev 1 2048 10 1
-bpred 2lev -bpred:2lev 1 4096 10 1
-------------------------------------------------------------------------------------------------
sim_num_insn                               1018925 |      1018925 |      1018925 |      1018925 |      1018925 |      1018925 |      1018925 |      2188382 |      2188382 |      2188382 |      2188382 |      2188382 |      2188382 |      2188382 |      4731876 |      4731876 |      4731876 |      4731876 |      4731876 |      4731876 |      4731876 |     10003916 |     10003916 |     10003916 |     10003916 |     10003916 |     10003916 |     10003916 |     21305029 |     21305029 |     21305029 |     21305029 |     21305029 |     21305029 |     21305029 |     45461151 |     45461151 |     45461151 |     45461151 |     45461151 |     45461151 |     45461151 |     95374351 |     95374351 |     95374351 |     95374351 |     95374351 |     95374351 |     95374351 |    201145430 |    201145430 |    201145430 |    201145430 |    201145430 |    201145430 |    201145430 |    425210434 |    425210434 |    425210434 |    425210434 |    425210434 |    425210434 |    425210434 |    886186079 |    886186079 |    886186079 |    886186079 |    886186079 |    886186079 |    886186079 |   1855408573 |   1855408573 |   1855408573 |   1855408573 |   1855408573 |   1855408573 |   1855408573 |
sim_num_refs                                280466 |       280466 |       280466 |       280466 |       280466 |       280466 |       280466 |       600247 |       600247 |       600247 |       600247 |       600247 |       600247 |       600247 |      1295766 |      1295766 |      1295766 |      1295766 |      1295766 |      1295766 |      1295766 |      2734100 |      2734100 |      2734100 |      2734100 |      2734100 |      2734100 |      2734100 |      5823438 |      5823438 |      5823438 |      5823438 |      5823438 |      5823438 |      5823438 |     12423745 |     12423745 |     12423745 |     12423745 |     12423745 |     12423745 |     12423745 |     26039951 |     26039951 |     26039951 |     26039951 |     26039951 |     26039951 |     26039951 |     54936642 |     54936642 |     54936642 |     54936642 |     54936642 |     54936642 |     54936642 |    116144372 |    116144372 |    116144372 |    116144372 |    116144372 |    116144372 |    116144372 |    241873590 |    241873590 |    241873590 |    241873590 |    241873590 |    241873590 |    241873590 |    506590766 |    506590766 |    506590766 |    506590766 |    506590766 |    506590766 |    506590766 |
sim_elapsed_time                                 1 |            1 |            1 |            1 |            1 |            1 |            1 |            1 |            1 |            1 |            1 |            1 |            1 |            1 |            1 |            1 |            1 |            1 |            1 |            1 |            1 |            2 |            1 |            1 |            1 |            1 |            1 |            1 |            3 |            3 |            2 |            3 |            3 |            2 |            3 |            6 |            5 |            6 |            6 |            5 |            6 |            6 |           12 |           11 |           12 |           12 |           11 |           11 |           12 |           25 |           25 |           24 |           25 |           26 |           25 |           25 |           52 |           51 |           51 |           53 |           53 |           53 |           53 |          108 |          113 |          107 |          110 |          109 |          110 |          109 |          222 |          224 |          220 |          226 |          225 |          225 |          226 |
sim_inst_rate                         1018925.0000 | 1018925.0000 | 1018925.0000 | 1018925.0000 | 1018925.0000 | 1018925.0000 | 1018925.0000 | 2188382.0000 | 2188382.0000 | 2188382.0000 | 2188382.0000 | 2188382.0000 | 2188382.0000 | 2188382.0000 | 4731876.0000 | 4731876.0000 | 4731876.0000 | 4731876.0000 | 4731876.0000 | 4731876.0000 | 4731876.0000 | 5001958.0000 |10003916.0000 |10003916.0000 |10003916.0000 |10003916.0000 |10003916.0000 |10003916.0000 | 7101676.3333 | 7101676.3333 |10652514.5000 | 7101676.3333 | 7101676.3333 |10652514.5000 | 7101676.3333 | 7576858.5000 | 9092230.2000 | 7576858.5000 | 7576858.5000 | 9092230.2000 | 7576858.5000 | 7576858.5000 | 7947862.5833 | 8670395.5455 | 7947862.5833 | 7947862.5833 | 8670395.5455 | 8670395.5455 | 7947862.5833 | 8045817.2000 | 8045817.2000 | 8381059.5833 | 8045817.2000 | 7736362.6923 | 8045817.2000 | 8045817.2000 | 8177123.7308 | 8337459.4902 | 8337459.4902 | 8022838.3774 | 8022838.3774 | 8022838.3774 | 8022838.3774 | 8205426.6574 | 7842354.6814 | 8282112.8879 | 8056237.0818 | 8130147.5138 | 8056237.0818 | 8130147.5138 | 8357696.2748 | 8283073.9866 | 8433675.3318 | 8209772.4469 | 8246260.3244 | 8246260.3244 | 8209772.4469 |
sim_num_branches                            172243 |       172243 |       172243 |       172243 |       172243 |       172243 |       172243 |       370612 |       370612 |       370612 |       370612 |       370612 |       370612 |       370612 |       802340 |       802340 |       802340 |       802340 |       802340 |       802340 |       802340 |      1695202 |      1695202 |      1695202 |      1695202 |      1695202 |      1695202 |      1695202 |      3614148 |      3614148 |      3614148 |      3614148 |      3614148 |      3614148 |      3614148 |      7715498 |      7715498 |      7715498 |      7715498 |      7715498 |      7715498 |      7715498 |     16177470 |     16177470 |     16177470 |     16177470 |     16177470 |     16177470 |     16177470 |     34143328 |     34143328 |     34143328 |     34143328 |     34143328 |     34143328 |     34143328 |     72201883 |     72201883 |     72201883 |     72201883 |     72201883 |     72201883 |     72201883 |    150399162 |    150399162 |    150399162 |    150399162 |    150399162 |    150399162 |    150399162 |    315080855 |    315080855 |    315080855 |    315080855 |    315080855 |    315080855 |    315080855 |
sim_IPB                                     5.9156 |       5.9156 |       5.9156 |       5.9156 |       5.9156 |       5.9156 |       5.9156 |       5.9048 |       5.9048 |       5.9048 |       5.9048 |       5.9048 |       5.9048 |       5.9048 |       5.8976 |       5.8976 |       5.8976 |       5.8976 |       5.8976 |       5.8976 |       5.8976 |       5.9013 |       5.9013 |       5.9013 |       5.9013 |       5.9013 |       5.9013 |       5.9013 |       5.8949 |       5.8949 |       5.8949 |       5.8949 |       5.8949 |       5.8949 |       5.8949 |       5.8922 |       5.8922 |       5.8922 |       5.8922 |       5.8922 |       5.8922 |       5.8922 |       5.8955 |       5.8955 |       5.8955 |       5.8955 |       5.8955 |       5.8955 |       5.8955 |       5.8912 |       5.8912 |       5.8912 |       5.8912 |       5.8912 |       5.8912 |       5.8912 |       5.8892 |       5.8892 |       5.8892 |       5.8892 |       5.8892 |       5.8892 |       5.8892 |       5.8922 |       5.8922 |       5.8922 |       5.8922 |       5.8922 |       5.8922 |       5.8922 |       5.8887 |       5.8887 |       5.8887 |       5.8887 |       5.8887 |       5.8887 |       5.8887 |
bpred_bimod.lookups                         172243 |       172243 |       172243 |xxxxxxxxxxxxx |xxxxxxxxxxxxx |xxxxxxxxxxxxx |xxxxxxxxxxxxx |       370612 |       370612 |       370612 |xxxxxxxxxxxxx |xxxxxxxxxxxxx |xxxxxxxxxxxxx |xxxxxxxxxxxxx |       802340 |       802340 |       802340 |xxxxxxxxxxxxx |xxxxxxxxxxxxx |xxxxxxxxxxxxx |xxxxxxxxxxxxx |      1695202 |      1695202 |      1695202 |xxxxxxxxxxxxx |xxxxxxxxxxxxx |xxxxxxxxxxxxx |xxxxxxxxxxxxx |      3614148 |      3614148 |      3614148 |xxxxxxxxxxxxx |xxxxxxxxxxxxx |xxxxxxxxxxxxx |xxxxxxxxxxxxx |      7715498 |      7715498 |      7715498 |xxxxxxxxxxxxx |xxxxxxxxxxxxx |xxxxxxxxxxxxx |xxxxxxxxxxxxx |     16177470 |     16177470 |     16177470 |xxxxxxxxxxxxx |xxxxxxxxxxxxx |xxxxxxxxxxxxx |xxxxxxxxxxxxx |     34143328 |     34143328 |     34143328 |xxxxxxxxxxxxx |xxxxxxxxxxxxx |xxxxxxxxxxxxx |xxxxxxxxxxxxx |     72201883 |     72201883 |     72201883 |xxxxxxxxxxxxx |xxxxxxxxxxxxx |xxxxxxxxxxxxx |xxxxxxxxxxxxx |    150399162 |    150399162 |    150399162 |xxxxxxxxxxxxx |xxxxxxxxxxxxx |xxxxxxxxxxxxx |xxxxxxxxxxxxx |    315080855 |    315080855 |    315080855 |
bpred_bimod.updates                         172243 |       172243 |       172243 |xxxxxxxxxxxxx |xxxxxxxxxxxxx |xxxxxxxxxxxxx |xxxxxxxxxxxxx |       370612 |       370612 |       370612 |xxxxxxxxxxxxx |xxxxxxxxxxxxx |xxxxxxxxxxxxx |xxxxxxxxxxxxx |       802340 |       802340 |       802340 |xxxxxxxxxxxxx |xxxxxxxxxxxxx |xxxxxxxxxxxxx |xxxxxxxxxxxxx |      1695202 |      1695202 |      1695202 |xxxxxxxxxxxxx |xxxxxxxxxxxxx |xxxxxxxxxxxxx |xxxxxxxxxxxxx |      3614148 |      3614148 |      3614148 |xxxxxxxxxxxxx |xxxxxxxxxxxxx |xxxxxxxxxxxxx |xxxxxxxxxxxxx |      7715498 |      7715498 |      7715498 |xxxxxxxxxxxxx |xxxxxxxxxxxxx |xxxxxxxxxxxxx |xxxxxxxxxxxxx |     16177470 |     16177470 |     16177470 |xxxxxxxxxxxxx |xxxxxxxxxxxxx |xxxxxxxxxxxxx |xxxxxxxxxxxxx |     34143328 |     34143328 |     34143328 |xxxxxxxxxxxxx |xxxxxxxxxxxxx |xxxxxxxxxxxxx |xxxxxxxxxxxxx |     72201883 |     72201883 |     72201883 |xxxxxxxxxxxxx |xxxxxxxxxxxxx |xxxxxxxxxxxxx |xxxxxxxxxxxxx |    150399162 |    150399162 |    150399162 |xxxxxxxxxxxxx |xxxxxxxxxxxxx |xxxxxxxxxxxxx |xxxxxxxxxxxxx |    315080855 |    315080855 |    315080855 |
bpred_bimod.addr_hits                       141289 |       141296 |       141297 |xxxxxxxxxxxxx |xxxxxxxxxxxxx |xxxxxxxxxxxxx |xxxxxxxxxxxxx |       303689 |       303696 |       303699 |xxxxxxxxxxxxx |xxxxxxxxxxxxx |xxxxxxxxxxxxx |xxxxxxxxxxxxx |       659899 |       659905 |       659905 |xxxxxxxxxxxxx |xxxxxxxxxxxxx |xxxxxxxxxxxxx |xxxxxxxxxxxxx |      1383277 |      1383285 |      1383286 |xxxxxxxxxxxxx |xxxxxxxxxxxxx |xxxxxxxxxxxxx |xxxxxxxxxxxxx |      2949237 |      2949245 |      2949246 |xxxxxxxxxxxxx |xxxxxxxxxxxxx |xxxxxxxxxxxxx |xxxxxxxxxxxxx |      6315040 |      6315049 |      6315049 |xxxxxxxxxxxxx |xxxxxxxxxxxxx |xxxxxxxxxxxxx |xxxxxxxxxxxxx |     13169787 |     13169796 |     13169796 |xxxxxxxxxxxxx |xxxxxxxxxxxxx |xxxxxxxxxxxxx |xxxxxxxxxxxxx |     27796950 |     27796959 |     27796959 |xxxxxxxxxxxxx |xxxxxxxxxxxxx |xxxxxxxxxxxxx |xxxxxxxxxxxxx |     58946727 |     58946735 |     58946735 |xxxxxxxxxxxxx |xxxxxxxxxxxxx |xxxxxxxxxxxxx |xxxxxxxxxxxxx |    122203724 |    122203732 |    122203732 |xxxxxxxxxxxxx |xxxxxxxxxxxxx |xxxxxxxxxxxxx |xxxxxxxxxxxxx |    256092025 |    256092033 |    256092033 |
bpred_bimod.dir_hits                        141410 |       141417 |       141417 |xxxxxxxxxxxxx |xxxxxxxxxxxxx |xxxxxxxxxxxxx |xxxxxxxxxxxxx |       303814 |       303821 |       303823 |xxxxxxxxxxxxx |xxxxxxxxxxxxx |xxxxxxxxxxxxx |xxxxxxxxxxxxx |       660028 |       660030 |       660028 |xxxxxxxxxxxxx |xxxxxxxxxxxxx |xxxxxxxxxxxxx |xxxxxxxxxxxxx |      1383400 |      1383407 |      1383407 |xxxxxxxxxxxxx |xxxxxxxxxxxxx |xxxxxxxxxxxxx |xxxxxxxxxxxxx |      2949361 |      2949368 |      2949368 |xxxxxxxxxxxxx |xxxxxxxxxxxxx |xxxxxxxxxxxxx |xxxxxxxxxxxxx |      6315165 |      6315173 |      6315172 |xxxxxxxxxxxxx |xxxxxxxxxxxxx |xxxxxxxxxxxxx |xxxxxxxxxxxxx |     13169910 |     13169918 |     13169917 |xxxxxxxxxxxxx |xxxxxxxxxxxxx |xxxxxxxxxxxxx |xxxxxxxxxxxxx |     27797076 |     27797084 |     27797083 |xxxxxxxxxxxxx |xxxxxxxxxxxxx |xxxxxxxxxxxxx |xxxxxxxxxxxxx |     58946865 |     58946871 |     58946870 |xxxxxxxxxxxxx |xxxxxxxxxxxxx |xxxxxxxxxxxxx |xxxxxxxxxxxxx |    122203861 |    122203867 |    122203866 |xxxxxxxxxxxxx |xxxxxxxxxxxxx |xxxxxxxxxxxxx |xxxxxxxxxxxxx |    256092163 |    256092169 |    256092168 |
bpred_bimod.misses                           30833 |        30826 |        30826 |xxxxxxxxxxxxx |xxxxxxxxxxxxx |xxxxxxxxxxxxx |xxxxxxxxxxxxx |        66798 |        66791 |        66789 |xxxxxxxxxxxxx |xxxxxxxxxxxxx |xxxxxxxxxxxxx |xxxxxxxxxxxxx |       142312 |       142310 |       142312 |xxxxxxxxxxxxx |xxxxxxxxxxxxx |xxxxxxxxxxxxx |xxxxxxxxxxxxx |       311802 |       311795 |       311795 |xxxxxxxxxxxxx |xxxxxxxxxxxxx |xxxxxxxxxxxxx |xxxxxxxxxxxxx |       664787 |       664780 |       664780 |xxxxxxxxxxxxx |xxxxxxxxxxxxx |xxxxxxxxxxxxx |xxxxxxxxxxxxx |      1400333 |      1400325 |      1400326 |xxxxxxxxxxxxx |xxxxxxxxxxxxx |xxxxxxxxxxxxx |xxxxxxxxxxxxx |      3007560 |      3007552 |      3007553 |xxxxxxxxxxxxx |xxxxxxxxxxxxx |xxxxxxxxxxxxx |xxxxxxxxxxxxx |      6346252 |      6346244 |      6346245 |xxxxxxxxxxxxx |xxxxxxxxxxxxx |xxxxxxxxxxxxx |xxxxxxxxxxxxx |     13255018 |     13255012 |     13255013 |xxxxxxxxxxxxx |xxxxxxxxxxxxx |xxxxxxxxxxxxx |xxxxxxxxxxxxx |     28195301 |     28195295 |     28195296 |xxxxxxxxxxxxx |xxxxxxxxxxxxx |xxxxxxxxxxxxx |xxxxxxxxxxxxx |     58988692 |     58988686 |     58988687 |
bpred_bimod.jr_hits                           4157 |         4157 |         4157 |xxxxxxxxxxxxx |xxxxxxxxxxxxx |xxxxxxxxxxxxx |xxxxxxxxxxxxx |         8261 |         8261 |         8261 |xxxxxxxxxxxxx |xxxxxxxxxxxxx |xxxxxxxxxxxxx |xxxxxxxxxxxxx |        16453 |        16453 |        16453 |xxxxxxxxxxxxx |xxxxxxxxxxxxx |xxxxxxxxxxxxx |xxxxxxxxxxxxx |        32837 |        32837 |        32837 |xxxxxxxxxxxxx |xxxxxxxxxxxxx |xxxxxxxxxxxxx |xxxxxxxxxxxxx |        65605 |        65605 |        65605 |xxxxxxxxxxxxx |xxxxxxxxxxxxx |xxxxxxxxxxxxx |xxxxxxxxxxxxx |       131141 |       131141 |       131141 |xxxxxxxxxxxxx |xxxxxxxxxxxxx |xxxxxxxxxxxxx |xxxxxxxxxxxxx |       262213 |       262213 |       262213 |xxxxxxxxxxxxx |xxxxxxxxxxxxx |xxxxxxxxxxxxx |xxxxxxxxxxxxx |       524357 |       524357 |       524357 |xxxxxxxxxxxxx |xxxxxxxxxxxxx |xxxxxxxxxxxxx |xxxxxxxxxxxxx |      1048648 |      1048648 |      1048648 |xxxxxxxxxxxxx |xxxxxxxxxxxxx |xxxxxxxxxxxxx |xxxxxxxxxxxxx |      2097224 |      2097224 |      2097224 |xxxxxxxxxxxxx |xxxxxxxxxxxxx |xxxxxxxxxxxxx |xxxxxxxxxxxxx |      4194376 |      4194376 |      4194376 |
bpred_bimod.jr_seen                           4157 |         4157 |         4157 |xxxxxxxxxxxxx |xxxxxxxxxxxxx |xxxxxxxxxxxxx |xxxxxxxxxxxxx |         8262 |         8262 |         8262 |xxxxxxxxxxxxx |xxxxxxxxxxxxx |xxxxxxxxxxxxx |xxxxxxxxxxxxx |        16454 |        16454 |        16454 |xxxxxxxxxxxxx |xxxxxxxxxxxxx |xxxxxxxxxxxxx |xxxxxxxxxxxxx |        32838 |        32838 |        32838 |xxxxxxxxxxxxx |xxxxxxxxxxxxx |xxxxxxxxxxxxx |xxxxxxxxxxxxx |        65606 |        65606 |        65606 |xxxxxxxxxxxxx |xxxxxxxxxxxxx |xxxxxxxxxxxxx |xxxxxxxxxxxxx |       131142 |       131142 |       131142 |xxxxxxxxxxxxx |xxxxxxxxxxxxx |xxxxxxxxxxxxx |xxxxxxxxxxxxx |       262214 |       262214 |       262214 |xxxxxxxxxxxxx |xxxxxxxxxxxxx |xxxxxxxxxxxxx |xxxxxxxxxxxxx |       524358 |       524358 |       524358 |xxxxxxxxxxxxx |xxxxxxxxxxxxx |xxxxxxxxxxxxx |xxxxxxxxxxxxx |      1048649 |      1048649 |      1048649 |xxxxxxxxxxxxx |xxxxxxxxxxxxx |xxxxxxxxxxxxx |xxxxxxxxxxxxx |      2097225 |      2097225 |      2097225 |xxxxxxxxxxxxx |xxxxxxxxxxxxx |xxxxxxxxxxxxx |xxxxxxxxxxxxx |      4194377 |      4194377 |      4194377 |
bpred_bimod.jr_non_ras_hits.PP                   0 |            0 |            0 |xxxxxxxxxxxxx |xxxxxxxxxxxxx |xxxxxxxxxxxxx |xxxxxxxxxxxxx |            0 |            0 |            0 |xxxxxxxxxxxxx |xxxxxxxxxxxxx |xxxxxxxxxxxxx |xxxxxxxxxxxxx |            0 |            0 |            0 |xxxxxxxxxxxxx |xxxxxxxxxxxxx |xxxxxxxxxxxxx |xxxxxxxxxxxxx |            0 |            0 |            0 |xxxxxxxxxxxxx |xxxxxxxxxxxxx |xxxxxxxxxxxxx |xxxxxxxxxxxxx |            0 |            0 |            0 |xxxxxxxxxxxxx |xxxxxxxxxxxxx |xxxxxxxxxxxxx |xxxxxxxxxxxxx |            0 |            0 |            0 |xxxxxxxxxxxxx |xxxxxxxxxxxxx |xxxxxxxxxxxxx |xxxxxxxxxxxxx |            0 |            0 |            0 |xxxxxxxxxxxxx |xxxxxxxxxxxxx |xxxxxxxxxxxxx |xxxxxxxxxxxxx |            0 |            0 |            0 |xxxxxxxxxxxxx |xxxxxxxxxxxxx |xxxxxxxxxxxxx |xxxxxxxxxxxxx |            0 |            0 |            0 |xxxxxxxxxxxxx |xxxxxxxxxxxxx |xxxxxxxxxxxxx |xxxxxxxxxxxxx |            0 |            0 |            0 |xxxxxxxxxxxxx |xxxxxxxxxxxxx |xxxxxxxxxxxxx |xxxxxxxxxxxxx |            0 |            0 |            0 |
bpred_bimod.jr_non_ras_seen.PP                   0 |            0 |            0 |xxxxxxxxxxxxx |xxxxxxxxxxxxx |xxxxxxxxxxxxx |xxxxxxxxxxxxx |            0 |            0 |            0 |xxxxxxxxxxxxx |xxxxxxxxxxxxx |xxxxxxxxxxxxx |xxxxxxxxxxxxx |            0 |            0 |            0 |xxxxxxxxxxxxx |xxxxxxxxxxxxx |xxxxxxxxxxxxx |xxxxxxxxxxxxx |            0 |            0 |            0 |xxxxxxxxxxxxx |xxxxxxxxxxxxx |xxxxxxxxxxxxx |xxxxxxxxxxxxx |            0 |            0 |            0 |xxxxxxxxxxxxx |xxxxxxxxxxxxx |xxxxxxxxxxxxx |xxxxxxxxxxxxx |            0 |            0 |            0 |xxxxxxxxxxxxx |xxxxxxxxxxxxx |xxxxxxxxxxxxx |xxxxxxxxxxxxx |            0 |            0 |            0 |xxxxxxxxxxxxx |xxxxxxxxxxxxx |xxxxxxxxxxxxx |xxxxxxxxxxxxx |            0 |            0 |            0 |xxxxxxxxxxxxx |xxxxxxxxxxxxx |xxxxxxxxxxxxx |xxxxxxxxxxxxx |            1 |            1 |            1 |xxxxxxxxxxxxx |xxxxxxxxxxxxx |xxxxxxxxxxxxx |xxxxxxxxxxxxx |            1 |            1 |            1 |xxxxxxxxxxxxx |xxxxxxxxxxxxx |xxxxxxxxxxxxx |xxxxxxxxxxxxx |            1 |            1 |            1 |
bpred_bimod.bpred_addr_rate                 0.8203 |       0.8203 |       0.8203 |xxxxxxxxxxxxx |xxxxxxxxxxxxx |xxxxxxxxxxxxx |xxxxxxxxxxxxx |       0.8194 |       0.8194 |       0.8195 |xxxxxxxxxxxxx |xxxxxxxxxxxxx |xxxxxxxxxxxxx |xxxxxxxxxxxxx |       0.8225 |       0.8225 |       0.8225 |xxxxxxxxxxxxx |xxxxxxxxxxxxx |xxxxxxxxxxxxx |xxxxxxxxxxxxx |       0.8160 |       0.8160 |       0.8160 |xxxxxxxxxxxxx |xxxxxxxxxxxxx |xxxxxxxxxxxxx |xxxxxxxxxxxxx |       0.8160 |       0.8160 |       0.8160 |xxxxxxxxxxxxx |xxxxxxxxxxxxx |xxxxxxxxxxxxx |xxxxxxxxxxxxx |       0.8185 |       0.8185 |       0.8185 |xxxxxxxxxxxxx |xxxxxxxxxxxxx |xxxxxxxxxxxxx |xxxxxxxxxxxxx |       0.8141 |       0.8141 |       0.8141 |xxxxxxxxxxxxx |xxxxxxxxxxxxx |xxxxxxxxxxxxx |xxxxxxxxxxxxx |       0.8141 |       0.8141 |       0.8141 |xxxxxxxxxxxxx |xxxxxxxxxxxxx |xxxxxxxxxxxxx |xxxxxxxxxxxxx |       0.8164 |       0.8164 |       0.8164 |xxxxxxxxxxxxx |xxxxxxxxxxxxx |xxxxxxxxxxxxx |xxxxxxxxxxxxx |       0.8125 |       0.8125 |       0.8125 |xxxxxxxxxxxxx |xxxxxxxxxxxxx |xxxxxxxxxxxxx |xxxxxxxxxxxxx |       0.8128 |       0.8128 |       0.8128 |
bpred_bimod.bpred_dir_rate                  0.8210 |       0.8210 |       0.8210 |xxxxxxxxxxxxx |xxxxxxxxxxxxx |xxxxxxxxxxxxx |xxxxxxxxxxxxx |       0.8198 |       0.8198 |       0.8198 |xxxxxxxxxxxxx |xxxxxxxxxxxxx |xxxxxxxxxxxxx |xxxxxxxxxxxxx |       0.8226 |       0.8226 |       0.8226 |xxxxxxxxxxxxx |xxxxxxxxxxxxx |xxxxxxxxxxxxx |xxxxxxxxxxxxx |       0.8161 |       0.8161 |       0.8161 |xxxxxxxxxxxxx |xxxxxxxxxxxxx |xxxxxxxxxxxxx |xxxxxxxxxxxxx |       0.8161 |       0.8161 |       0.8161 |xxxxxxxxxxxxx |xxxxxxxxxxxxx |xxxxxxxxxxxxx |xxxxxxxxxxxxx |       0.8185 |       0.8185 |       0.8185 |xxxxxxxxxxxxx |xxxxxxxxxxxxx |xxxxxxxxxxxxx |xxxxxxxxxxxxx |       0.8141 |       0.8141 |       0.8141 |xxxxxxxxxxxxx |xxxxxxxxxxxxx |xxxxxxxxxxxxx |xxxxxxxxxxxxx |       0.8141 |       0.8141 |       0.8141 |xxxxxxxxxxxxx |xxxxxxxxxxxxx |xxxxxxxxxxxxx |xxxxxxxxxxxxx |       0.8164 |       0.8164 |       0.8164 |xxxxxxxxxxxxx |xxxxxxxxxxxxx |xxxxxxxxxxxxx |xxxxxxxxxxxxx |       0.8125 |       0.8125 |       0.8125 |xxxxxxxxxxxxx |xxxxxxxxxxxxx |xxxxxxxxxxxxx |xxxxxxxxxxxxx |       0.8128 |       0.8128 |       0.8128 |
bpred_bimod.bpred_jr_rate                   1.0000 |       1.0000 |       1.0000 |xxxxxxxxxxxxx |xxxxxxxxxxxxx |xxxxxxxxxxxxx |xxxxxxxxxxxxx |       0.9999 |       0.9999 |       0.9999 |xxxxxxxxxxxxx |xxxxxxxxxxxxx |xxxxxxxxxxxxx |xxxxxxxxxxxxx |       0.9999 |       0.9999 |       0.9999 |xxxxxxxxxxxxx |xxxxxxxxxxxxx |xxxxxxxxxxxxx |xxxxxxxxxxxxx |       1.0000 |       1.0000 |       1.0000 |xxxxxxxxxxxxx |xxxxxxxxxxxxx |xxxxxxxxxxxxx |xxxxxxxxxxxxx |       1.0000 |       1.0000 |       1.0000 |xxxxxxxxxxxxx |xxxxxxxxxxxxx |xxxxxxxxxxxxx |xxxxxxxxxxxxx |       1.0000 |       1.0000 |       1.0000 |xxxxxxxxxxxxx |xxxxxxxxxxxxx |xxxxxxxxxxxxx |xxxxxxxxxxxxx |       1.0000 |       1.0000 |       1.0000 |xxxxxxxxxxxxx |xxxxxxxxxxxxx |xxxxxxxxxxxxx |xxxxxxxxxxxxx |       1.0000 |       1.0000 |       1.0000 |xxxxxxxxxxxxx |xxxxxxxxxxxxx |xxxxxxxxxxxxx |xxxxxxxxxxxxx |       1.0000 |       1.0000 |       1.0000 |xxxxxxxxxxxxx |xxxxxxxxxxxxx |xxxxxxxxxxxxx |xxxxxxxxxxxxx |       1.0000 |       1.0000 |       1.0000 |xxxxxxxxxxxxx |xxxxxxxxxxxxx |xxxxxxxxxxxxx |xxxxxxxxxxxxx |       1.0000 |       1.0000 |       1.0000 |
bpred_bimod.bpred_jr_non_ras_rate.PP       <error: |      <error: |      <error: |xxxxxxxxxxxxx |xxxxxxxxxxxxx |xxxxxxxxxxxxx |xxxxxxxxxxxxx |      <error: |      <error: |      <error: |xxxxxxxxxxxxx |xxxxxxxxxxxxx |xxxxxxxxxxxxx |xxxxxxxxxxxxx |      <error: |      <error: |      <error: |xxxxxxxxxxxxx |xxxxxxxxxxxxx |xxxxxxxxxxxxx |xxxxxxxxxxxxx |      <error: |      <error: |      <error: |xxxxxxxxxxxxx |xxxxxxxxxxxxx |xxxxxxxxxxxxx |xxxxxxxxxxxxx |      <error: |      <error: |      <error: |xxxxxxxxxxxxx |xxxxxxxxxxxxx |xxxxxxxxxxxxx |xxxxxxxxxxxxx |      <error: |      <error: |      <error: |xxxxxxxxxxxxx |xxxxxxxxxxxxx |xxxxxxxxxxxxx |xxxxxxxxxxxxx |      <error: |      <error: |      <error: |xxxxxxxxxxxxx |xxxxxxxxxxxxx |xxxxxxxxxxxxx |xxxxxxxxxxxxx |      <error: |      <error: |      <error: |xxxxxxxxxxxxx |xxxxxxxxxxxxx |xxxxxxxxxxxxx |xxxxxxxxxxxxx |       0.0000 |       0.0000 |       0.0000 |xxxxxxxxxxxxx |xxxxxxxxxxxxx |xxxxxxxxxxxxx |xxxxxxxxxxxxx |       0.0000 |       0.0000 |       0.0000 |xxxxxxxxxxxxx |xxxxxxxxxxxxx |xxxxxxxxxxxxx |xxxxxxxxxxxxx |       0.0000 |       0.0000 |       0.0000 |
bpred_bimod.retstack_pushes                   4159 |         4159 |         4159 |xxxxxxxxxxxxx |xxxxxxxxxxxxx |xxxxxxxxxxxxx |xxxxxxxxxxxxx |         8264 |         8264 |         8264 |xxxxxxxxxxxxx |xxxxxxxxxxxxx |xxxxxxxxxxxxx |xxxxxxxxxxxxx |        16456 |        16456 |        16456 |xxxxxxxxxxxxx |xxxxxxxxxxxxx |xxxxxxxxxxxxx |xxxxxxxxxxxxx |        32840 |        32840 |        32840 |xxxxxxxxxxxxx |xxxxxxxxxxxxx |xxxxxxxxxxxxx |xxxxxxxxxxxxx |        65608 |        65608 |        65608 |xxxxxxxxxxxxx |xxxxxxxxxxxxx |xxxxxxxxxxxxx |xxxxxxxxxxxxx |       131144 |       131144 |       131144 |xxxxxxxxxxxxx |xxxxxxxxxxxxx |xxxxxxxxxxxxx |xxxxxxxxxxxxx |       262216 |       262216 |       262216 |xxxxxxxxxxxxx |xxxxxxxxxxxxx |xxxxxxxxxxxxx |xxxxxxxxxxxxx |       524360 |       524360 |       524360 |xxxxxxxxxxxxx |xxxxxxxxxxxxx |xxxxxxxxxxxxx |xxxxxxxxxxxxx |      1048650 |      1048650 |      1048650 |xxxxxxxxxxxxx |xxxxxxxxxxxxx |xxxxxxxxxxxxx |xxxxxxxxxxxxx |      2097226 |      2097226 |      2097226 |xxxxxxxxxxxxx |xxxxxxxxxxxxx |xxxxxxxxxxxxx |xxxxxxxxxxxxx |      4194378 |      4194378 |      4194378 |
bpred_bimod.retstack_pops                     4157 |         4157 |         4157 |xxxxxxxxxxxxx |xxxxxxxxxxxxx |xxxxxxxxxxxxx |xxxxxxxxxxxxx |         8262 |         8262 |         8262 |xxxxxxxxxxxxx |xxxxxxxxxxxxx |xxxxxxxxxxxxx |xxxxxxxxxxxxx |        16454 |        16454 |        16454 |xxxxxxxxxxxxx |xxxxxxxxxxxxx |xxxxxxxxxxxxx |xxxxxxxxxxxxx |        32838 |        32838 |        32838 |xxxxxxxxxxxxx |xxxxxxxxxxxxx |xxxxxxxxxxxxx |xxxxxxxxxxxxx |        65606 |        65606 |        65606 |xxxxxxxxxxxxx |xxxxxxxxxxxxx |xxxxxxxxxxxxx |xxxxxxxxxxxxx |       131142 |       131142 |       131142 |xxxxxxxxxxxxx |xxxxxxxxxxxxx |xxxxxxxxxxxxx |xxxxxxxxxxxxx |       262214 |       262214 |       262214 |xxxxxxxxxxxxx |xxxxxxxxxxxxx |xxxxxxxxxxxxx |xxxxxxxxxxxxx |       524358 |       524358 |       524358 |xxxxxxxxxxxxx |xxxxxxxxxxxxx |xxxxxxxxxxxxx |xxxxxxxxxxxxx |      1048648 |      1048648 |      1048648 |xxxxxxxxxxxxx |xxxxxxxxxxxxx |xxxxxxxxxxxxx |xxxxxxxxxxxxx |      2097224 |      2097224 |      2097224 |xxxxxxxxxxxxx |xxxxxxxxxxxxx |xxxxxxxxxxxxx |xxxxxxxxxxxxx |      4194376 |      4194376 |      4194376 |
bpred_bimod.used_ras.PP                       4157 |         4157 |         4157 |xxxxxxxxxxxxx |xxxxxxxxxxxxx |xxxxxxxxxxxxx |xxxxxxxxxxxxx |         8262 |         8262 |         8262 |xxxxxxxxxxxxx |xxxxxxxxxxxxx |xxxxxxxxxxxxx |xxxxxxxxxxxxx |        16454 |        16454 |        16454 |xxxxxxxxxxxxx |xxxxxxxxxxxxx |xxxxxxxxxxxxx |xxxxxxxxxxxxx |        32838 |        32838 |        32838 |xxxxxxxxxxxxx |xxxxxxxxxxxxx |xxxxxxxxxxxxx |xxxxxxxxxxxxx |        65606 |        65606 |        65606 |xxxxxxxxxxxxx |xxxxxxxxxxxxx |xxxxxxxxxxxxx |xxxxxxxxxxxxx |       131142 |       131142 |       131142 |xxxxxxxxxxxxx |xxxxxxxxxxxxx |xxxxxxxxxxxxx |xxxxxxxxxxxxx |       262214 |       262214 |       262214 |xxxxxxxxxxxxx |xxxxxxxxxxxxx |xxxxxxxxxxxxx |xxxxxxxxxxxxx |       524358 |       524358 |       524358 |xxxxxxxxxxxxx |xxxxxxxxxxxxx |xxxxxxxxxxxxx |xxxxxxxxxxxxx |      1048648 |      1048648 |      1048648 |xxxxxxxxxxxxx |xxxxxxxxxxxxx |xxxxxxxxxxxxx |xxxxxxxxxxxxx |      2097224 |      2097224 |      2097224 |xxxxxxxxxxxxx |xxxxxxxxxxxxx |xxxxxxxxxxxxx |xxxxxxxxxxxxx |      4194376 |      4194376 |      4194376 |
bpred_bimod.ras_hits.PP                       4157 |         4157 |         4157 |xxxxxxxxxxxxx |xxxxxxxxxxxxx |xxxxxxxxxxxxx |xxxxxxxxxxxxx |         8261 |         8261 |         8261 |xxxxxxxxxxxxx |xxxxxxxxxxxxx |xxxxxxxxxxxxx |xxxxxxxxxxxxx |        16453 |        16453 |        16453 |xxxxxxxxxxxxx |xxxxxxxxxxxxx |xxxxxxxxxxxxx |xxxxxxxxxxxxx |        32837 |        32837 |        32837 |xxxxxxxxxxxxx |xxxxxxxxxxxxx |xxxxxxxxxxxxx |xxxxxxxxxxxxx |        65605 |        65605 |        65605 |xxxxxxxxxxxxx |xxxxxxxxxxxxx |xxxxxxxxxxxxx |xxxxxxxxxxxxx |       131141 |       131141 |       131141 |xxxxxxxxxxxxx |xxxxxxxxxxxxx |xxxxxxxxxxxxx |xxxxxxxxxxxxx |       262213 |       262213 |       262213 |xxxxxxxxxxxxx |xxxxxxxxxxxxx |xxxxxxxxxxxxx |xxxxxxxxxxxxx |       524357 |       524357 |       524357 |xxxxxxxxxxxxx |xxxxxxxxxxxxx |xxxxxxxxxxxxx |xxxxxxxxxxxxx |      1048648 |      1048648 |      1048648 |xxxxxxxxxxxxx |xxxxxxxxxxxxx |xxxxxxxxxxxxx |xxxxxxxxxxxxx |      2097224 |      2097224 |      2097224 |xxxxxxxxxxxxx |xxxxxxxxxxxxx |xxxxxxxxxxxxx |xxxxxxxxxxxxx |      4194376 |      4194376 |      4194376 |
bpred_bimod.ras_rate.PP                     1.0000 |       1.0000 |       1.0000 |xxxxxxxxxxxxx |xxxxxxxxxxxxx |xxxxxxxxxxxxx |xxxxxxxxxxxxx |       0.9999 |       0.9999 |       0.9999 |xxxxxxxxxxxxx |xxxxxxxxxxxxx |xxxxxxxxxxxxx |xxxxxxxxxxxxx |       0.9999 |       0.9999 |       0.9999 |xxxxxxxxxxxxx |xxxxxxxxxxxxx |xxxxxxxxxxxxx |xxxxxxxxxxxxx |       1.0000 |       1.0000 |       1.0000 |xxxxxxxxxxxxx |xxxxxxxxxxxxx |xxxxxxxxxxxxx |xxxxxxxxxxxxx |       1.0000 |       1.0000 |       1.0000 |xxxxxxxxxxxxx |xxxxxxxxxxxxx |xxxxxxxxxxxxx |xxxxxxxxxxxxx |       1.0000 |       1.0000 |       1.0000 |xxxxxxxxxxxxx |xxxxxxxxxxxxx |xxxxxxxxxxxxx |xxxxxxxxxxxxx |       1.0000 |       1.0000 |       1.0000 |xxxxxxxxxxxxx |xxxxxxxxxxxxx |xxxxxxxxxxxxx |xxxxxxxxxxxxx |       1.0000 |       1.0000 |       1.0000 |xxxxxxxxxxxxx |xxxxxxxxxxxxx |xxxxxxxxxxxxx |xxxxxxxxxxxxx |       1.0000 |       1.0000 |       1.0000 |xxxxxxxxxxxxx |xxxxxxxxxxxxx |xxxxxxxxxxxxx |xxxxxxxxxxxxx |       1.0000 |       1.0000 |       1.0000 |xxxxxxxxxxxxx |xxxxxxxxxxxxx |xxxxxxxxxxxxx |xxxxxxxxxxxxx |       1.0000 |       1.0000 |       1.0000 |
bpred_2lev.lookups                   xxxxxxxxxxxxx |xxxxxxxxxxxxx |xxxxxxxxxxxxx |       172243 |       172243 |       172243 |       172243 |xxxxxxxxxxxxx |xxxxxxxxxxxxx |xxxxxxxxxxxxx |       370612 |       370612 |       370612 |       370612 |xxxxxxxxxxxxx |xxxxxxxxxxxxx |xxxxxxxxxxxxx |       802340 |       802340 |       802340 |       802340 |xxxxxxxxxxxxx |xxxxxxxxxxxxx |xxxxxxxxxxxxx |      1695202 |      1695202 |      1695202 |      1695202 |xxxxxxxxxxxxx |xxxxxxxxxxxxx |xxxxxxxxxxxxx |      3614148 |      3614148 |      3614148 |      3614148 |xxxxxxxxxxxxx |xxxxxxxxxxxxx |xxxxxxxxxxxxx |      7715498 |      7715498 |      7715498 |      7715498 |xxxxxxxxxxxxx |xxxxxxxxxxxxx |xxxxxxxxxxxxx |     16177470 |     16177470 |     16177470 |     16177470 |xxxxxxxxxxxxx |xxxxxxxxxxxxx |xxxxxxxxxxxxx |     34143328 |     34143328 |     34143328 |     34143328 |xxxxxxxxxxxxx |xxxxxxxxxxxxx |xxxxxxxxxxxxx |     72201883 |     72201883 |     72201883 |     72201883 |xxxxxxxxxxxxx |xxxxxxxxxxxxx |xxxxxxxxxxxxx |    150399162 |    150399162 |    150399162 |    150399162 |xxxxxxxxxxxxx |xxxxxxxxxxxxx |xxxxxxxxxxxxx |    315080855 |    315080855 |    315080855 |    315080855 |
[...]
bpred_2lev.retstack_pops             xxxxxxxxxxxxx |xxxxxxxxxxxxx |xxxxxxxxxxxxx |         4157 |         4157 |         4157 |         4157 |xxxxxxxxxxxxx |xxxxxxxxxxxxx |xxxxxxxxxxxxx |         8262 |         8262 |         8262 |         8262 |xxxxxxxxxxxxx |xxxxxxxxxxxxx |xxxxxxxxxxxxx |        16454 |        16454 |        16454 |        16454 |xxxxxxxxxxxxx |xxxxxxxxxxxxx |xxxxxxxxxxxxx |        32838 |        32838 |        32838 |        32838 |xxxxxxxxxxxxx |xxxxxxxxxxxxx |xxxxxxxxxxxxx |        65606 |        65606 |        65606 |        65606 |xxxxxxxxxxxxx |xxxxxxxxxxxxx |xxxxxxxxxxxxx |       131142 |       131142 |       131142 |       131142 |xxxxxxxxxxxxx |xxxxxxxxxxxxx |xxxxxxxxxxxxx |       262214 |       262214 |       262214 |       262214 |xxxxxxxxxxxxx |xxxxxxxxxxxxx |xxxxxxxxxxxxx |       524358 |       524358 |       524358 |       524358 |xxxxxxxxxxxxx |xxxxxxxxxxxxx |xxxxxxxxxxxxx |      1048648 |      1048648 |      1048648 |      1048648 |xxxxxxxxxxxxx |xxxxxxxxxxxxx |xxxxxxxxxxxxx |      2097224 |      2097224 |      2097224 |      2097224 |xxxxxxxxxxxxx |xxxxxxxxxxxxx |xxxxxxxxxxxxx |      4194376 |      4194376 |      4194376 |      4194376 |
bpred_2lev.used_ras.PP               xxxxxxxxxxxxx |xxxxxxxxxxxxx |xxxxxxxxxxxxx |         4157 |         4157 |         4157 |         4157 |xxxxxxxxxxxxx |xxxxxxxxxxxxx |xxxxxxxxxxxxx |         8262 |         8262 |         8262 |         8262 |xxxxxxxxxxxxx |xxxxxxxxxxxxx |xxxxxxxxxxxxx |        16454 |        16454 |        16454 |        16454 |xxxxxxxxxxxxx |xxxxxxxxxxxxx |xxxxxxxxxxxxx |        32838 |        32838 |        32838 |        32838 |xxxxxxxxxxxxx |xxxxxxxxxxxxx |xxxxxxxxxxxxx |        65606 |        65606 |        65606 |        65606 |xxxxxxxxxxxxx |xxxxxxxxxxxxx |xxxxxxxxxxxxx |       131142 |       131142 |       131142 |       131142 |xxxxxxxxxxxxx |xxxxxxxxxxxxx |xxxxxxxxxxxxx |       262214 |       262214 |       262214 |       262214 |xxxxxxxxxxxxx |xxxxxxxxxxxxx |xxxxxxxxxxxxx |       524358 |       524358 |       524358 |       524358 |xxxxxxxxxxxxx |xxxxxxxxxxxxx |xxxxxxxxxxxxx |      1048648 |      1048648 |      1048648 |      1048648 |xxxxxxxxxxxxx |xxxxxxxxxxxxx |xxxxxxxxxxxxx |      2097224 |      2097224 |      2097224 |      2097224 |xxxxxxxxxxxxx |xxxxxxxxxxxxx |xxxxxxxxxxxxx |      4194376 |      4194376 |      4194376 |      4194376 |
bpred_2lev.ras_hits.PP               xxxxxxxxxxxxx |xxxxxxxxxxxxx |xxxxxxxxxxxxx |         4157 |         4157 |         4157 |         4157 |xxxxxxxxxxxxx |xxxxxxxxxxxxx |xxxxxxxxxxxxx |         8261 |         8261 |         8261 |         8261 |xxxxxxxxxxxxx |xxxxxxxxxxxxx |xxxxxxxxxxxxx |        16453 |        16453 |        16453 |        16453 |xxxxxxxxxxxxx |xxxxxxxxxxxxx |xxxxxxxxxxxxx |        32837 |        32837 |        32837 |        32837 |xxxxxxxxxxxxx |xxxxxxxxxxxxx |xxxxxxxxxxxxx |        65605 |        65605 |        65605 |        65605 |xxxxxxxxxxxxx |xxxxxxxxxxxxx |xxxxxxxxxxxxx |       131141 |       131141 |       131141 |       131141 |xxxxxxxxxxxxx |xxxxxxxxxxxxx |xxxxxxxxxxxxx |       262213 |       262213 |       262213 |       262213 |xxxxxxxxxxxxx |xxxxxxxxxxxxx |xxxxxxxxxxxxx |       524357 |       524357 |       524357 |       524357 |xxxxxxxxxxxxx |xxxxxxxxxxxxx |xxxxxxxxxxxxx |      1048648 |      1048648 |      1048648 |      1048648 |xxxxxxxxxxxxx |xxxxxxxxxxxxx |xxxxxxxxxxxxx |      2097224 |      2097224 |      2097224 |      2097224 |xxxxxxxxxxxxx |xxxxxxxxxxxxx |xxxxxxxxxxxxx |      4194376 |      4194376 |      4194376 |      4194376 |
bpred_2lev.ras_rate.PP               xxxxxxxxxxxxx |xxxxxxxxxxxxx |xxxxxxxxxxxxx |       1.0000 |       1.0000 |       1.0000 |       1.0000 |xxxxxxxxxxxxx |xxxxxxxxxxxxx |xxxxxxxxxxxxx |       0.9999 |       0.9999 |       0.9999 |       0.9999 |xxxxxxxxxxxxx |xxxxxxxxxxxxx |xxxxxxxxxxxxx |       0.9999 |       0.9999 |       0.9999 |       0.9999 |xxxxxxxxxxxxx |xxxxxxxxxxxxx |xxxxxxxxxxxxx |       1.0000 |       1.0000 |       1.0000 |       1.0000 |xxxxxxxxxxxxx |xxxxxxxxxxxxx |xxxxxxxxxxxxx |       1.0000 |       1.0000 |       1.0000 |       1.0000 |xxxxxxxxxxxxx |xxxxxxxxxxxxx |xxxxxxxxxxxxx |       1.0000 |       1.0000 |       1.0000 |       1.0000 |xxxxxxxxxxxxx |xxxxxxxxxxxxx |xxxxxxxxxxxxx |       1.0000 |       1.0000 |       1.0000 |       1.0000 |xxxxxxxxxxxxx |xxxxxxxxxxxxx |xxxxxxxxxxxxx |       1.0000 |       1.0000 |       1.0000 |       1.0000 |xxxxxxxxxxxxx |xxxxxxxxxxxxx |xxxxxxxxxxxxx |       1.0000 |       1.0000 |       1.0000 |       1.0000 |xxxxxxxxxxxxx |xxxxxxxxxxxxx |xxxxxxxxxxxxx |       1.0000 |       1.0000 |       1.0000 |       1.0000 |xxxxxxxxxxxxx |xxxxxxxxxxxxx |xxxxxxxxxxxxx |       1.0000 |       1.0000 |       1.0000 |       1.0000 |

Command list: 
	sslittle-na-sstrix-gcc -Wall -O3 -funroll-loops -finline-functions  -DRANDOM_SIZE=4096 -DOFFSET=2 -DSORT=memory_tuned_heapsort sorts/memory_tuned_heapsort1776351064.c simpleMain.c -o memory_tuned_heapsort1700806041
	sim-cache -cache:dl1 dl1:256:32:1:l -cache:dl2 dl2:131072:32:1:l -cache:il1 il1:256:32:1:l -cache:il2 dl2 memory_tuned_heapsort1700806041
	sim-cache -cache:dl1 dl1:256:32:1:l -cache:dl2 dl2:65536:32:1:l -cache:il1 il1:256:32:1:l -cache:il2 dl2 memory_tuned_heapsort1700806041
	sim-cache -cache:dl1 dl1:1:32:256:l -cache:dl2 dl2:1:32:131072:l -cache:il1 il1:1:32:256:l -cache:il2 dl2 memory_tuned_heapsort1700806041
	sim-cache -cache:dl1 dl1:1:32:256:l -cache:dl2 dl2:1:32:65536:l -cache:il1 il1:1:32:256:l -cache:il2 dl2 memory_tuned_heapsort1700806041
	sim-bpred -bpred bimod -bpred:bimod 512 memory_tuned_heapsort1700806041
	sim-bpred -bpred bimod -bpred:bimod 1024 memory_tuned_heapsort1700806041
	sim-bpred -bpred bimod -bpred:bimod 2048 memory_tuned_heapsort1700806041
	sim-bpred -bpred 2lev -bpred:2lev 1 512 10 1 memory_tuned_heapsort1700806041
	sim-bpred -bpred 2lev -bpred:2lev 1 1024 10 1 memory_tuned_heapsort1700806041
	sim-bpred -bpred 2lev -bpred:2lev 1 2048 10 1 memory_tuned_heapsort1700806041
	sim-bpred -bpred 2lev -bpred:2lev 1 4096 10 1 memory_tuned_heapsort1700806041
	sslittle-na-sstrix-gcc -Wall -O3 -funroll-loops -finline-functions  -DRANDOM_SIZE=8192 -DOFFSET=2 -DSORT=memory_tuned_heapsort sorts/memory_tuned_heapsort1776351064.c simpleMain.c -o memory_tuned_heapsort1700806041
	sim-cache -cache:dl1 dl1:256:32:1:l -cache:dl2 dl2:131072:32:1:l -cache:il1 il1:256:32:1:l -cache:il2 dl2 memory_tuned_heapsort1700806041
	sim-cache -cache:dl1 dl1:256:32:1:l -cache:dl2 dl2:65536:32:1:l -cache:il1 il1:256:32:1:l -cache:il2 dl2 memory_tuned_heapsort1700806041
	sim-cache -cache:dl1 dl1:1:32:256:l -cache:dl2 dl2:1:32:131072:l -cache:il1 il1:1:32:256:l -cache:il2 dl2 memory_tuned_heapsort1700806041
	sim-cache -cache:dl1 dl1:1:32:256:l -cache:dl2 dl2:1:32:65536:l -cache:il1 il1:1:32:256:l -cache:il2 dl2 memory_tuned_heapsort1700806041
	sim-bpred -bpred bimod -bpred:bimod 512 memory_tuned_heapsort1700806041
	sim-bpred -bpred bimod -bpred:bimod 1024 memory_tuned_heapsort1700806041
	sim-bpred -bpred bimod -bpred:bimod 2048 memory_tuned_heapsort1700806041
	sim-bpred -bpred 2lev -bpred:2lev 1 512 10 1 memory_tuned_heapsort1700806041
	sim-bpred -bpred 2lev -bpred:2lev 1 1024 10 1 memory_tuned_heapsort1700806041
	sim-bpred -bpred 2lev -bpred:2lev 1 2048 10 1 memory_tuned_heapsort1700806041
	sim-bpred -bpred 2lev -bpred:2lev 1 4096 10 1 memory_tuned_heapsort1700806041
	sslittle-na-sstrix-gcc -Wall -O3 -funroll-loops -finline-functions  -DRANDOM_SIZE=16384 -DOFFSET=2 -DSORT=memory_tuned_heapsort sorts/memory_tuned_heapsort1776351064.c simpleMain.c -o memory_tuned_heapsort1700806041
	sim-cache -cache:dl1 dl1:256:32:1:l -cache:dl2 dl2:131072:32:1:l -cache:il1 il1:256:32:1:l -cache:il2 dl2 memory_tuned_heapsort1700806041
	sim-cache -cache:dl1 dl1:256:32:1:l -cache:dl2 dl2:65536:32:1:l -cache:il1 il1:256:32:1:l -cache:il2 dl2 memory_tuned_heapsort1700806041
	sim-cache -cache:dl1 dl1:1:32:256:l -cache:dl2 dl2:1:32:131072:l -cache:il1 il1:1:32:256:l -cache:il2 dl2 memory_tuned_heapsort1700806041
	sim-cache -cache:dl1 dl1:1:32:256:l -cache:dl2 dl2:1:32:65536:l -cache:il1 il1:1:32:256:l -cache:il2 dl2 memory_tuned_heapsort1700806041
	sim-bpred -bpred bimod -bpred:bimod 512 memory_tuned_heapsort1700806041
	sim-bpred -bpred bimod -bpred:bimod 1024 memory_tuned_heapsort1700806041
	sim-bpred -bpred bimod -bpred:bimod 2048 memory_tuned_heapsort1700806041
	sim-bpred -bpred 2lev -bpred:2lev 1 512 10 1 memory_tuned_heapsort1700806041
	sim-bpred -bpred 2lev -bpred:2lev 1 1024 10 1 memory_tuned_heapsort1700806041
	sim-bpred -bpred 2lev -bpred:2lev 1 2048 10 1 memory_tuned_heapsort1700806041
	sim-bpred -bpred 2lev -bpred:2lev 1 4096 10 1 memory_tuned_heapsort1700806041
	sslittle-na-sstrix-gcc -Wall -O3 -funroll-loops -finline-functions  -DRANDOM_SIZE=32768 -DOFFSET=2 -DSORT=memory_tuned_heapsort sorts/memory_tuned_heapsort1776351064.c simpleMain.c -o memory_tuned_heapsort1700806041
	sim-cache -cache:dl1 dl1:256:32:1:l -cache:dl2 dl2:131072:32:1:l -cache:il1 il1:256:32:1:l -cache:il2 dl2 memory_tuned_heapsort1700806041
	sim-cache -cache:dl1 dl1:256:32:1:l -cache:dl2 dl2:65536:32:1:l -cache:il1 il1:256:32:1:l -cache:il2 dl2 memory_tuned_heapsort1700806041
	sim-cache -cache:dl1 dl1:1:32:256:l -cache:dl2 dl2:1:32:131072:l -cache:il1 il1:1:32:256:l -cache:il2 dl2 memory_tuned_heapsort1700806041
	sim-cache -cache:dl1 dl1:1:32:256:l -cache:dl2 dl2:1:32:65536:l -cache:il1 il1:1:32:256:l -cache:il2 dl2 memory_tuned_heapsort1700806041
	sim-bpred -bpred bimod -bpred:bimod 512 memory_tuned_heapsort1700806041
	sim-bpred -bpred bimod -bpred:bimod 1024 memory_tuned_heapsort1700806041
	sim-bpred -bpred bimod -bpred:bimod 2048 memory_tuned_heapsort1700806041
	sim-bpred -bpred 2lev -bpred:2lev 1 512 10 1 memory_tuned_heapsort1700806041
	sim-bpred -bpred 2lev -bpred:2lev 1 1024 10 1 memory_tuned_heapsort1700806041
	sim-bpred -bpred 2lev -bpred:2lev 1 2048 10 1 memory_tuned_heapsort1700806041
	sim-bpred -bpred 2lev -bpred:2lev 1 4096 10 1 memory_tuned_heapsort1700806041
	sslittle-na-sstrix-gcc -Wall -O3 -funroll-loops -finline-functions  -DRANDOM_SIZE=65536 -DOFFSET=2 -DSORT=memory_tuned_heapsort sorts/memory_tuned_heapsort1776351064.c simpleMain.c -o memory_tuned_heapsort1700806041
	sim-cache -cache:dl1 dl1:256:32:1:l -cache:dl2 dl2:131072:32:1:l -cache:il1 il1:256:32:1:l -cache:il2 dl2 memory_tuned_heapsort1700806041
	sim-cache -cache:dl1 dl1:256:32:1:l -cache:dl2 dl2:65536:32:1:l -cache:il1 il1:256:32:1:l -cache:il2 dl2 memory_tuned_heapsort1700806041
	sim-cache -cache:dl1 dl1:1:32:256:l -cache:dl2 dl2:1:32:131072:l -cache:il1 il1:1:32:256:l -cache:il2 dl2 memory_tuned_heapsort1700806041
	sim-cache -cache:dl1 dl1:1:32:256:l -cache:dl2 dl2:1:32:65536:l -cache:il1 il1:1:32:256:l -cache:il2 dl2 memory_tuned_heapsort1700806041
	sim-bpred -bpred bimod -bpred:bimod 512 memory_tuned_heapsort1700806041
	sim-bpred -bpred bimod -bpred:bimod 1024 memory_tuned_heapsort1700806041
	sim-bpred -bpred bimod -bpred:bimod 2048 memory_tuned_heapsort1700806041
	sim-bpred -bpred 2lev -bpred:2lev 1 512 10 1 memory_tuned_heapsort1700806041
	sim-bpred -bpred 2lev -bpred:2lev 1 1024 10 1 memory_tuned_heapsort1700806041
	sim-bpred -bpred 2lev -bpred:2lev 1 2048 10 1 memory_tuned_heapsort1700806041
	sim-bpred -bpred 2lev -bpred:2lev 1 4096 10 1 memory_tuned_heapsort1700806041
	sslittle-na-sstrix-gcc -Wall -O3 -funroll-loops -finline-functions  -DRANDOM_SIZE=131072 -DOFFSET=2 -DSORT=memory_tuned_heapsort sorts/memory_tuned_heapsort1776351064.c simpleMain.c -o memory_tuned_heapsort1700806041
	sim-cache -cache:dl1 dl1:256:32:1:l -cache:dl2 dl2:131072:32:1:l -cache:il1 il1:256:32:1:l -cache:il2 dl2 memory_tuned_heapsort1700806041
	sim-cache -cache:dl1 dl1:256:32:1:l -cache:dl2 dl2:65536:32:1:l -cache:il1 il1:256:32:1:l -cache:il2 dl2 memory_tuned_heapsort1700806041
	sim-cache -cache:dl1 dl1:1:32:256:l -cache:dl2 dl2:1:32:131072:l -cache:il1 il1:1:32:256:l -cache:il2 dl2 memory_tuned_heapsort1700806041
	sim-cache -cache:dl1 dl1:1:32:256:l -cache:dl2 dl2:1:32:65536:l -cache:il1 il1:1:32:256:l -cache:il2 dl2 memory_tuned_heapsort1700806041
	sim-bpred -bpred bimod -bpred:bimod 512 memory_tuned_heapsort1700806041
	sim-bpred -bpred bimod -bpred:bimod 1024 memory_tuned_heapsort1700806041
	sim-bpred -bpred bimod -bpred:bimod 2048 memory_tuned_heapsort1700806041
	sim-bpred -bpred 2lev -bpred:2lev 1 512 10 1 memory_tuned_heapsort1700806041
	sim-bpred -bpred 2lev -bpred:2lev 1 1024 10 1 memory_tuned_heapsort1700806041
	sim-bpred -bpred 2lev -bpred:2lev 1 2048 10 1 memory_tuned_heapsort1700806041
	sim-bpred -bpred 2lev -bpred:2lev 1 4096 10 1 memory_tuned_heapsort1700806041
	sslittle-na-sstrix-gcc -Wall -O3 -funroll-loops -finline-functions  -DRANDOM_SIZE=262144 -DOFFSET=2 -DSORT=memory_tuned_heapsort sorts/memory_tuned_heapsort1776351064.c simpleMain.c -o memory_tuned_heapsort1700806041
	sim-cache -cache:dl1 dl1:256:32:1:l -cache:dl2 dl2:131072:32:1:l -cache:il1 il1:256:32:1:l -cache:il2 dl2 memory_tuned_heapsort1700806041
	sim-cache -cache:dl1 dl1:256:32:1:l -cache:dl2 dl2:65536:32:1:l -cache:il1 il1:256:32:1:l -cache:il2 dl2 memory_tuned_heapsort1700806041
	sim-cache -cache:dl1 dl1:1:32:256:l -cache:dl2 dl2:1:32:131072:l -cache:il1 il1:1:32:256:l -cache:il2 dl2 memory_tuned_heapsort1700806041
	sim-cache -cache:dl1 dl1:1:32:256:l -cache:dl2 dl2:1:32:65536:l -cache:il1 il1:1:32:256:l -cache:il2 dl2 memory_tuned_heapsort1700806041
	sim-bpred -bpred bimod -bpred:bimod 512 memory_tuned_heapsort1700806041
	sim-bpred -bpred bimod -bpred:bimod 1024 memory_tuned_heapsort1700806041
	sim-bpred -bpred bimod -bpred:bimod 2048 memory_tuned_heapsort1700806041
	sim-bpred -bpred 2lev -bpred:2lev 1 512 10 1 memory_tuned_heapsort1700806041
	sim-bpred -bpred 2lev -bpred:2lev 1 1024 10 1 memory_tuned_heapsort1700806041
	sim-bpred -bpred 2lev -bpred:2lev 1 2048 10 1 memory_tuned_heapsort1700806041
	sim-bpred -bpred 2lev -bpred:2lev 1 4096 10 1 memory_tuned_heapsort1700806041
	sslittle-na-sstrix-gcc -Wall -O3 -funroll-loops -finline-functions  -DRANDOM_SIZE=524288 -DOFFSET=2 -DSORT=memory_tuned_heapsort sorts/memory_tuned_heapsort1776351064.c simpleMain.c -o memory_tuned_heapsort1700806041
	sim-cache -cache:dl1 dl1:256:32:1:l -cache:dl2 dl2:131072:32:1:l -cache:il1 il1:256:32:1:l -cache:il2 dl2 memory_tuned_heapsort1700806041
	sim-cache -cache:dl1 dl1:256:32:1:l -cache:dl2 dl2:65536:32:1:l -cache:il1 il1:256:32:1:l -cache:il2 dl2 memory_tuned_heapsort1700806041
	sim-cache -cache:dl1 dl1:1:32:256:l -cache:dl2 dl2:1:32:131072:l -cache:il1 il1:1:32:256:l -cache:il2 dl2 memory_tuned_heapsort1700806041
	sim-cache -cache:dl1 dl1:1:32:256:l -cache:dl2 dl2:1:32:65536:l -cache:il1 il1:1:32:256:l -cache:il2 dl2 memory_tuned_heapsort1700806041
	sim-bpred -bpred bimod -bpred:bimod 512 memory_tuned_heapsort1700806041
	sim-bpred -bpred bimod -bpred:bimod 1024 memory_tuned_heapsort1700806041
	sim-bpred -bpred bimod -bpred:bimod 2048 memory_tuned_heapsort1700806041
	sim-bpred -bpred 2lev -bpred:2lev 1 512 10 1 memory_tuned_heapsort1700806041
	sim-bpred -bpred 2lev -bpred:2lev 1 1024 10 1 memory_tuned_heapsort1700806041
	sim-bpred -bpred 2lev -bpred:2lev 1 2048 10 1 memory_tuned_heapsort1700806041
	sim-bpred -bpred 2lev -bpred:2lev 1 4096 10 1 memory_tuned_heapsort1700806041
	sslittle-na-sstrix-gcc -Wall -O3 -funroll-loops -finline-functions  -DRANDOM_SIZE=1048576 -DOFFSET=2 -DSORT=memory_tuned_heapsort sorts/memory_tuned_heapsort1776351064.c simpleMain.c -o memory_tuned_heapsort1700806041
	sim-cache -cache:dl1 dl1:256:32:1:l -cache:dl2 dl2:131072:32:1:l -cache:il1 il1:256:32:1:l -cache:il2 dl2 memory_tuned_heapsort1700806041
	sim-cache -cache:dl1 dl1:256:32:1:l -cache:dl2 dl2:65536:32:1:l -cache:il1 il1:256:32:1:l -cache:il2 dl2 memory_tuned_heapsort1700806041
	sim-cache -cache:dl1 dl1:1:32:256:l -cache:dl2 dl2:1:32:131072:l -cache:il1 il1:1:32:256:l -cache:il2 dl2 memory_tuned_heapsort1700806041
	sim-cache -cache:dl1 dl1:1:32:256:l -cache:dl2 dl2:1:32:65536:l -cache:il1 il1:1:32:256:l -cache:il2 dl2 memory_tuned_heapsort1700806041
	sim-bpred -bpred bimod -bpred:bimod 512 memory_tuned_heapsort1700806041
	sim-bpred -bpred bimod -bpred:bimod 1024 memory_tuned_heapsort1700806041
	sim-bpred -bpred bimod -bpred:bimod 2048 memory_tuned_heapsort1700806041
	sim-bpred -bpred 2lev -bpred:2lev 1 512 10 1 memory_tuned_heapsort1700806041
	sim-bpred -bpred 2lev -bpred:2lev 1 1024 10 1 memory_tuned_heapsort1700806041
	sim-bpred -bpred 2lev -bpred:2lev 1 2048 10 1 memory_tuned_heapsort1700806041
	sim-bpred -bpred 2lev -bpred:2lev 1 4096 10 1 memory_tuned_heapsort1700806041
	sslittle-na-sstrix-gcc -Wall -O3 -funroll-loops -finline-functions  -DRANDOM_SIZE=2097152 -DOFFSET=2 -DSORT=memory_tuned_heapsort sorts/memory_tuned_heapsort1776351064.c simpleMain.c -o memory_tuned_heapsort1700806041
	sim-cache -cache:dl1 dl1:256:32:1:l -cache:dl2 dl2:131072:32:1:l -cache:il1 il1:256:32:1:l -cache:il2 dl2 memory_tuned_heapsort1700806041
	sim-cache -cache:dl1 dl1:256:32:1:l -cache:dl2 dl2:65536:32:1:l -cache:il1 il1:256:32:1:l -cache:il2 dl2 memory_tuned_heapsort1700806041
	sim-cache -cache:dl1 dl1:1:32:256:l -cache:dl2 dl2:1:32:131072:l -cache:il1 il1:1:32:256:l -cache:il2 dl2 memory_tuned_heapsort1700806041
	sim-cache -cache:dl1 dl1:1:32:256:l -cache:dl2 dl2:1:32:65536:l -cache:il1 il1:1:32:256:l -cache:il2 dl2 memory_tuned_heapsort1700806041
	sim-bpred -bpred bimod -bpred:bimod 512 memory_tuned_heapsort1700806041
	sim-bpred -bpred bimod -bpred:bimod 1024 memory_tuned_heapsort1700806041
	sim-bpred -bpred bimod -bpred:bimod 2048 memory_tuned_heapsort1700806041
	sim-bpred -bpred 2lev -bpred:2lev 1 512 10 1 memory_tuned_heapsort1700806041
	sim-bpred -bpred 2lev -bpred:2lev 1 1024 10 1 memory_tuned_heapsort1700806041
	sim-bpred -bpred 2lev -bpred:2lev 1 2048 10 1 memory_tuned_heapsort1700806041
	sim-bpred -bpred 2lev -bpred:2lev 1 4096 10 1 memory_tuned_heapsort1700806041
	sslittle-na-sstrix-gcc -Wall -O3 -funroll-loops -finline-functions  -DRANDOM_SIZE=4194304 -DOFFSET=2 -DSORT=memory_tuned_heapsort sorts/memory_tuned_heapsort1776351064.c simpleMain.c -o memory_tuned_heapsort1700806041
	sim-cache -cache:dl1 dl1:256:32:1:l -cache:dl2 dl2:131072:32:1:l -cache:il1 il1:256:32:1:l -cache:il2 dl2 memory_tuned_heapsort1700806041
	sim-cache -cache:dl1 dl1:256:32:1:l -cache:dl2 dl2:65536:32:1:l -cache:il1 il1:256:32:1:l -cache:il2 dl2 memory_tuned_heapsort1700806041
	sim-cache -cache:dl1 dl1:1:32:256:l -cache:dl2 dl2:1:32:131072:l -cache:il1 il1:1:32:256:l -cache:il2 dl2 memory_tuned_heapsort1700806041
	sim-cache -cache:dl1 dl1:1:32:256:l -cache:dl2 dl2:1:32:65536:l -cache:il1 il1:1:32:256:l -cache:il2 dl2 memory_tuned_heapsort1700806041
	sim-bpred -bpred bimod -bpred:bimod 512 memory_tuned_heapsort1700806041
	sim-bpred -bpred bimod -bpred:bimod 1024 memory_tuned_heapsort1700806041
	sim-bpred -bpred bimod -bpred:bimod 2048 memory_tuned_heapsort1700806041
	sim-bpred -bpred 2lev -bpred:2lev 1 512 10 1 memory_tuned_heapsort1700806041
	sim-bpred -bpred 2lev -bpred:2lev 1 1024 10 1 memory_tuned_heapsort1700806041
	sim-bpred -bpred 2lev -bpred:2lev 1 2048 10 1 memory_tuned_heapsort1700806041
	sim-bpred -bpred 2lev -bpred:2lev 1 4096 10 1 memory_tuned_heapsort1700806041
