Wed Jun 29 05:14:37 2005
Run as: "./do_simple -c 16_byte_cache_line_random.org2 -o 2 -L 16 cache4_heapsort"
-------------------------------------------------------------------------------------------------
sim-cache                                     4096 |         4096 |         4096 |         4096 |         8192 |         8192 |         8192 |         8192 |        16384 |        16384 |        16384 |        16384 |        32768 |        32768 |        32768 |        32768 |        65536 |        65536 |        65536 |        65536 |       131072 |       131072 |       131072 |       131072 |       262144 |       262144 |       262144 |       262144 |       524288 |       524288 |       524288 |       524288 |      1048576 |      1048576 |      1048576 |      1048576 |      2097152 |      2097152 |      2097152 |      2097152 |      4194304 |      4194304 |      4194304 |      4194304 |
-cache:dl1 dl1:512:16:1:l -cache:dl2 dl2:262144:16:1:l -cache:il1 il1:512:16:1:l -cache:il2 dl2
-cache:dl1 dl1:512:16:1:l -cache:dl2 dl2:131072:16:1:l -cache:il1 il1:512:16:1:l -cache:il2 dl2
-cache:dl1 dl1:1:16:512:l -cache:dl2 dl2:1:16:262144:l -cache:il1 il1:1:16:512:l -cache:il2 dl2
-cache:dl1 dl1:1:16:512:l -cache:dl2 dl2:1:16:131072:l -cache:il1 il1:1:16:512:l -cache:il2 dl2
-------------------------------------------------------------------------------------------------
sim_num_insn                                868489 |       868489 |       868489 |       868489 |      1867503 |      1867503 |      1867503 |      1867503 |      4000499 |      4000499 |      4000499 |      4000499 |      8532667 |      8532667 |      8532667 |      8532667 |     18154401 |     18154401 |     18154401 |     18154401 |     38442364 |     38442364 |     38442364 |     38442364 |     81265370 |     81265370 |     81265370 |     81265370 |    171085994 |    171085994 |    171085994 |    171085994 |    359770545 |    359770545 |    359770545 |    359770545 |    753717729 |    753717729 |    753717729 |    753717729 |   1577777152 |   1577777152 |   1577777152 |   1577777152 |
sim_num_refs                                217577 |       217577 |       217577 |       217577 |       464430 |       464430 |       464430 |       464430 |       990872 |       990872 |       990872 |       990872 |      2108054 |      2108054 |      2108054 |      2108054 |      4477119 |      4477119 |      4477119 |      4477119 |      9468035 |      9468035 |      9468035 |      9468035 |     19991857 |     19991857 |     19991857 |     19991857 |     42054581 |     42054581 |     42054581 |     42054581 |     88360894 |     88360894 |     88360894 |     88360894 |    184998707 |    184998707 |    184998707 |    184998707 |    386965936 |    386965936 |    386965936 |    386965936 |
sim_elapsed_time                                 1 |            1 |           35 |           18 |            1 |            1 |           55 |           28 |            1 |            1 |           95 |           47 |            2 |            2 |          172 |           85 |            5 |            5 |          319 |          151 |           10 |           10 |          583 |          256 |           22 |           21 |          992 |          346 |           47 |           45 |         1334 |          375 |           96 |           97 |         1396 |          438 |          204 |          204 |         1529 |          570 |          430 |          436 |         1808 |          848 |
sim_inst_rate                          868489.0000 |  868489.0000 |   24813.9714 |   48249.3889 | 1867503.0000 | 1867503.0000 |   33954.6000 |   66696.5357 | 4000499.0000 | 4000499.0000 |   42110.5158 |   85117.0000 | 4266333.5000 | 4266333.5000 |   49608.5291 |  100384.3176 | 3630880.2000 | 3630880.2000 |   56910.3480 |  120227.8212 | 3844236.4000 | 3844236.4000 |   65938.8748 |  150165.4844 | 3693880.4545 | 3869779.5238 |   81920.7359 |  234871.0116 | 3640127.5319 | 3801910.9778 |  128250.3703 |  456229.3173 | 3747609.8438 | 3708974.6907 |  257715.2901 |  821393.9384 | 3694694.7500 | 3694694.7500 |  492948.1550 | 1322311.8053 | 3669249.1907 | 3618754.9358 |  872664.3540 | 1860586.2642 |
il1.accesses                                868489 |       868489 |       868489 |       868489 |      1867503 |      1867503 |      1867503 |      1867503 |      4000499 |      4000499 |      4000499 |      4000499 |      8532667 |      8532667 |      8532667 |      8532667 |     18154401 |     18154401 |     18154401 |     18154401 |     38442364 |     38442364 |     38442364 |     38442364 |     81265370 |     81265370 |     81265370 |     81265370 |    171085994 |    171085994 |    171085994 |    171085994 |    359770545 |    359770545 |    359770545 |    359770545 |    753717729 |    753717729 |    753717729 |    753717729 |   1577777152 |   1577777152 |   1577777152 |   1577777152 |
il1.hits                                    867565 |       867565 |       867719 |       867719 |      1866525 |      1866525 |      1866744 |      1866744 |      3999519 |      3999519 |      3999739 |      3999739 |      8531688 |      8531688 |      8531905 |      8531905 |     18153422 |     18153422 |     18153639 |     18153639 |     38441385 |     38441385 |     38441603 |     38441603 |     81264391 |     81264391 |     81264609 |     81264609 |    171085015 |    171085015 |    171085233 |    171085233 |    359769493 |    359769493 |    359769660 |    359769660 |    753716677 |    753716677 |    753716844 |    753716844 |   1577776100 |   1577776100 |   1577776267 |   1577776267 |
il1.misses                                     924 |          924 |          770 |          770 |          978 |          978 |          759 |          759 |          980 |          980 |          760 |          760 |          979 |          979 |          762 |          762 |          979 |          979 |          762 |          762 |          979 |          979 |          761 |          761 |          979 |          979 |          761 |          761 |          979 |          979 |          761 |          761 |         1052 |         1052 |          885 |          885 |         1052 |         1052 |          885 |          885 |         1052 |         1052 |          885 |          885 |
il1.replacements                               507 |          507 |          258 |          258 |          549 |          549 |          247 |          247 |          551 |          551 |          248 |          248 |          550 |          550 |          250 |          250 |          550 |          550 |          250 |          250 |          550 |          550 |          249 |          249 |          550 |          550 |          249 |          249 |          550 |          550 |          249 |          249 |          627 |          627 |          373 |          373 |          627 |          627 |          373 |          373 |          627 |          627 |          373 |          373 |
il1.writebacks                                   0 |            0 |            0 |            0 |            0 |            0 |            0 |            0 |            0 |            0 |            0 |            0 |            0 |            0 |            0 |            0 |            0 |            0 |            0 |            0 |            0 |            0 |            0 |            0 |            0 |            0 |            0 |            0 |            0 |            0 |            0 |            0 |            0 |            0 |            0 |            0 |            0 |            0 |            0 |            0 |            0 |            0 |            0 |            0 |
il1.invalidations                                0 |            0 |            0 |            0 |            0 |            0 |            0 |            0 |            0 |            0 |            0 |            0 |            0 |            0 |            0 |            0 |            0 |            0 |            0 |            0 |            0 |            0 |            0 |            0 |            0 |            0 |            0 |            0 |            0 |            0 |            0 |            0 |            0 |            0 |            0 |            0 |            0 |            0 |            0 |            0 |            0 |            0 |            0 |            0 |
il1.miss_rate                               0.0011 |       0.0011 |       0.0009 |       0.0009 |       0.0005 |       0.0005 |       0.0004 |       0.0004 |       0.0002 |       0.0002 |       0.0002 |       0.0002 |       0.0001 |       0.0001 |       0.0001 |       0.0001 |       0.0001 |       0.0001 |       0.0000 |       0.0000 |       0.0000 |       0.0000 |       0.0000 |       0.0000 |       0.0000 |       0.0000 |       0.0000 |       0.0000 |       0.0000 |       0.0000 |       0.0000 |       0.0000 |       0.0000 |       0.0000 |       0.0000 |       0.0000 |       0.0000 |       0.0000 |       0.0000 |       0.0000 |       0.0000 |       0.0000 |       0.0000 |       0.0000 |
il1.repl_rate                               0.0006 |       0.0006 |       0.0003 |       0.0003 |       0.0003 |       0.0003 |       0.0001 |       0.0001 |       0.0001 |       0.0001 |       0.0001 |       0.0001 |       0.0001 |       0.0001 |       0.0000 |       0.0000 |       0.0000 |       0.0000 |       0.0000 |       0.0000 |       0.0000 |       0.0000 |       0.0000 |       0.0000 |       0.0000 |       0.0000 |       0.0000 |       0.0000 |       0.0000 |       0.0000 |       0.0000 |       0.0000 |       0.0000 |       0.0000 |       0.0000 |       0.0000 |       0.0000 |       0.0000 |       0.0000 |       0.0000 |       0.0000 |       0.0000 |       0.0000 |       0.0000 |
il1.wb_rate                                 0.0000 |       0.0000 |       0.0000 |       0.0000 |       0.0000 |       0.0000 |       0.0000 |       0.0000 |       0.0000 |       0.0000 |       0.0000 |       0.0000 |       0.0000 |       0.0000 |       0.0000 |       0.0000 |       0.0000 |       0.0000 |       0.0000 |       0.0000 |       0.0000 |       0.0000 |       0.0000 |       0.0000 |       0.0000 |       0.0000 |       0.0000 |       0.0000 |       0.0000 |       0.0000 |       0.0000 |       0.0000 |       0.0000 |       0.0000 |       0.0000 |       0.0000 |       0.0000 |       0.0000 |       0.0000 |       0.0000 |       0.0000 |       0.0000 |       0.0000 |       0.0000 |
il1.inv_rate                                0.0000 |       0.0000 |       0.0000 |       0.0000 |       0.0000 |       0.0000 |       0.0000 |       0.0000 |       0.0000 |       0.0000 |       0.0000 |       0.0000 |       0.0000 |       0.0000 |       0.0000 |       0.0000 |       0.0000 |       0.0000 |       0.0000 |       0.0000 |       0.0000 |       0.0000 |       0.0000 |       0.0000 |       0.0000 |       0.0000 |       0.0000 |       0.0000 |       0.0000 |       0.0000 |       0.0000 |       0.0000 |       0.0000 |       0.0000 |       0.0000 |       0.0000 |       0.0000 |       0.0000 |       0.0000 |       0.0000 |       0.0000 |       0.0000 |       0.0000 |       0.0000 |
dl1.accesses                                234043 |       234043 |       234043 |       234043 |       497280 |       497280 |       497280 |       497280 |      1056490 |      1056490 |      1056490 |      1056490 |      2239208 |      2239208 |      2239208 |      2239208 |      4739345 |      4739345 |      4739345 |      4739345 |      9992405 |      9992405 |      9992405 |      9992405 |     21040515 |     21040515 |     21040515 |     21040515 |     44151815 |     44151815 |     44151815 |     44151815 |     92555280 |     92555280 |     92555280 |     92555280 |    193387397 |    193387397 |    193387397 |    193387397 |    403743234 |    403743234 |    403743234 |    403743234 |
dl1.hits                                    225952 |       225952 |       226501 |       226501 |       477640 |       477640 |       478822 |       478822 |      1007851 |      1007851 |      1011218 |      1011218 |      2123417 |      2123417 |      2130036 |      2130036 |      4466565 |      4466565 |      4482672 |      4482672 |      9370295 |      9370295 |      9402959 |      9402959 |     19635108 |     19635108 |     19709845 |     19709845 |     41040365 |     41040365 |     41189399 |     41189399 |     85699147 |     85699147 |     86032159 |     86032159 |    178500273 |    178500273 |    179161842 |    179161842 |    371523549 |    371523549 |    372945707 |    372945707 |
dl1.misses                                    8091 |         8091 |         7542 |         7542 |        19640 |        19640 |        18458 |        18458 |        48639 |        48639 |        45272 |        45272 |       115791 |       115791 |       109172 |       109172 |       272780 |       272780 |       256673 |       256673 |       622110 |       622110 |       589446 |       589446 |      1405407 |      1405407 |      1330670 |      1330670 |      3111450 |      3111450 |      2962416 |      2962416 |      6856133 |      6856133 |      6523121 |      6523121 |     14887124 |     14887124 |     14225555 |     14225555 |     32219685 |     32219685 |     30797527 |     30797527 |
dl1.replacements                              7579 |         7579 |         7030 |         7030 |        19128 |        19128 |        17946 |        17946 |        48127 |        48127 |        44760 |        44760 |       115279 |       115279 |       108660 |       108660 |       272268 |       272268 |       256161 |       256161 |       621598 |       621598 |       588934 |       588934 |      1404895 |      1404895 |      1330158 |      1330158 |      3110938 |      3110938 |      2961904 |      2961904 |      6855621 |      6855621 |      6522609 |      6522609 |     14886612 |     14886612 |     14225043 |     14225043 |     32219173 |     32219173 |     30797015 |     30797015 |
dl1.writebacks                                6419 |         6419 |         5893 |         5893 |        16599 |        16599 |        15503 |        15503 |        42787 |        42787 |        39613 |        39613 |       104172 |       104172 |        98029 |        98029 |       249313 |       249313 |       234271 |       234271 |       575100 |       575100 |       544815 |       544815 |      1310513 |      1310513 |      1241145 |      1241145 |      2921193 |      2921193 |      2783785 |      2783785 |      6471760 |      6471760 |      6165133 |      6165133 |     14116107 |     14116107 |     13509996 |     13509996 |     30672936 |     30672936 |     29367556 |     29367556 |
dl1.invalidations                                0 |            0 |            0 |            0 |            0 |            0 |            0 |            0 |            0 |            0 |            0 |            0 |            0 |            0 |            0 |            0 |            0 |            0 |            0 |            0 |            0 |            0 |            0 |            0 |            0 |            0 |            0 |            0 |            0 |            0 |            0 |            0 |            0 |            0 |            0 |            0 |            0 |            0 |            0 |            0 |            0 |            0 |            0 |            0 |
dl1.miss_rate                               0.0346 |       0.0346 |       0.0322 |       0.0322 |       0.0395 |       0.0395 |       0.0371 |       0.0371 |       0.0460 |       0.0460 |       0.0429 |       0.0429 |       0.0517 |       0.0517 |       0.0488 |       0.0488 |       0.0576 |       0.0576 |       0.0542 |       0.0542 |       0.0623 |       0.0623 |       0.0590 |       0.0590 |       0.0668 |       0.0668 |       0.0632 |       0.0632 |       0.0705 |       0.0705 |       0.0671 |       0.0671 |       0.0741 |       0.0741 |       0.0705 |       0.0705 |       0.0770 |       0.0770 |       0.0736 |       0.0736 |       0.0798 |       0.0798 |       0.0763 |       0.0763 |
dl1.repl_rate                               0.0324 |       0.0324 |       0.0300 |       0.0300 |       0.0385 |       0.0385 |       0.0361 |       0.0361 |       0.0456 |       0.0456 |       0.0424 |       0.0424 |       0.0515 |       0.0515 |       0.0485 |       0.0485 |       0.0574 |       0.0574 |       0.0540 |       0.0540 |       0.0622 |       0.0622 |       0.0589 |       0.0589 |       0.0668 |       0.0668 |       0.0632 |       0.0632 |       0.0705 |       0.0705 |       0.0671 |       0.0671 |       0.0741 |       0.0741 |       0.0705 |       0.0705 |       0.0770 |       0.0770 |       0.0736 |       0.0736 |       0.0798 |       0.0798 |       0.0763 |       0.0763 |
dl1.wb_rate                                 0.0274 |       0.0274 |       0.0252 |       0.0252 |       0.0334 |       0.0334 |       0.0312 |       0.0312 |       0.0405 |       0.0405 |       0.0375 |       0.0375 |       0.0465 |       0.0465 |       0.0438 |       0.0438 |       0.0526 |       0.0526 |       0.0494 |       0.0494 |       0.0576 |       0.0576 |       0.0545 |       0.0545 |       0.0623 |       0.0623 |       0.0590 |       0.0590 |       0.0662 |       0.0662 |       0.0631 |       0.0631 |       0.0699 |       0.0699 |       0.0666 |       0.0666 |       0.0730 |       0.0730 |       0.0699 |       0.0699 |       0.0760 |       0.0760 |       0.0727 |       0.0727 |
dl1.inv_rate                                0.0000 |       0.0000 |       0.0000 |       0.0000 |       0.0000 |       0.0000 |       0.0000 |       0.0000 |       0.0000 |       0.0000 |       0.0000 |       0.0000 |       0.0000 |       0.0000 |       0.0000 |       0.0000 |       0.0000 |       0.0000 |       0.0000 |       0.0000 |       0.0000 |       0.0000 |       0.0000 |       0.0000 |       0.0000 |       0.0000 |       0.0000 |       0.0000 |       0.0000 |       0.0000 |       0.0000 |       0.0000 |       0.0000 |       0.0000 |       0.0000 |       0.0000 |       0.0000 |       0.0000 |       0.0000 |       0.0000 |       0.0000 |       0.0000 |       0.0000 |       0.0000 |
dl2.accesses                                 15434 |        15434 |        14205 |        14205 |        37217 |        37217 |        34720 |        34720 |        92406 |        92406 |        85645 |        85645 |       220942 |       220942 |       207963 |       207963 |       523072 |       523072 |       491706 |       491706 |      1198189 |      1198189 |      1135022 |      1135022 |      2716899 |      2716899 |      2572576 |      2572576 |      6033622 |      6033622 |      5746962 |      5746962 |     13328945 |     13328945 |     12689139 |     12689139 |     29004283 |     29004283 |     27736436 |     27736436 |     62893673 |     62893673 |     60165968 |     60165968 |
dl2.hits                                     11727 |        11727 |        10568 |        10568 |        31461 |        31461 |        29053 |        29053 |        82540 |        82540 |        75881 |        75881 |       202881 |       202881 |       190005 |       190005 |       488627 |       488627 |       457364 |       457364 |      1130977 |      1130977 |      1067913 |      1067913 |      2584149 |      2579141 |      2439931 |      2395898 |      5764794 |      5321949 |      5400390 |      5093409 |     11901059 |     11487036 |     11381410 |     10974747 |     25320420 |     24285572 |     24309640 |     23235101 |     53452202 |     50881876 |     51162798 |     48780020 |
dl2.misses                                    3707 |         3707 |         3637 |         3637 |         5756 |         5756 |         5667 |         5667 |         9866 |         9866 |         9764 |         9764 |        18061 |        18061 |        17958 |        17958 |        34445 |        34445 |        34342 |        34342 |        67212 |        67212 |        67109 |        67109 |       132750 |       137758 |       132645 |       176678 |       268828 |       711673 |       346572 |       653553 |      1427886 |      1841909 |      1307729 |      1714392 |      3683863 |      4718711 |      3426796 |      4501335 |      9441471 |     12011797 |      9003170 |     11385948 |
dl2.replacements                               466 |          466 |            0 |            0 |          456 |          456 |            0 |            0 |          514 |          514 |            0 |            0 |          515 |          515 |            0 |            0 |          515 |          515 |            0 |            0 |          515 |          515 |            0 |            0 |          517 |         8871 |            0 |        45606 |         8869 |       580601 |        84428 |       522481 |      1165742 |      1710837 |      1045585 |      1583320 |      3421719 |      4587639 |      3164652 |      4370263 |      9179327 |     11880725 |      8741026 |     11254876 |
dl2.writebacks                                 264 |          264 |            0 |            0 |          247 |          247 |            0 |            0 |          291 |          291 |            0 |            0 |          289 |          289 |            0 |            0 |          289 |          289 |            0 |            0 |          289 |          289 |            0 |            0 |          289 |         8643 |            0 |        44214 |         8643 |       453004 |        83036 |       389044 |       908807 |      1428498 |       779054 |      1296639 |      2857423 |      3970855 |      2591665 |      3748225 |      7946562 |     10568794 |      7497902 |      9937447 |
dl2.invalidations                                0 |            0 |            0 |            0 |            0 |            0 |            0 |            0 |            0 |            0 |            0 |            0 |            0 |            0 |            0 |            0 |            0 |            0 |            0 |            0 |            0 |            0 |            0 |            0 |            0 |            0 |            0 |            0 |            0 |            0 |            0 |            0 |            0 |            0 |            0 |            0 |            0 |            0 |            0 |            0 |            0 |            0 |            0 |            0 |
dl2.miss_rate                               0.2402 |       0.2402 |       0.2560 |       0.2560 |       0.1547 |       0.1547 |       0.1632 |       0.1632 |       0.1068 |       0.1068 |       0.1140 |       0.1140 |       0.0817 |       0.0817 |       0.0864 |       0.0864 |       0.0659 |       0.0659 |       0.0698 |       0.0698 |       0.0561 |       0.0561 |       0.0591 |       0.0591 |       0.0489 |       0.0507 |       0.0516 |       0.0687 |       0.0446 |       0.1180 |       0.0603 |       0.1137 |       0.1071 |       0.1382 |       0.1031 |       0.1351 |       0.1270 |       0.1627 |       0.1235 |       0.1623 |       0.1501 |       0.1910 |       0.1496 |       0.1892 |
dl2.repl_rate                               0.0302 |       0.0302 |       0.0000 |       0.0000 |       0.0123 |       0.0123 |       0.0000 |       0.0000 |       0.0056 |       0.0056 |       0.0000 |       0.0000 |       0.0023 |       0.0023 |       0.0000 |       0.0000 |       0.0010 |       0.0010 |       0.0000 |       0.0000 |       0.0004 |       0.0004 |       0.0000 |       0.0000 |       0.0002 |       0.0033 |       0.0000 |       0.0177 |       0.0015 |       0.0962 |       0.0147 |       0.0909 |       0.0875 |       0.1284 |       0.0824 |       0.1248 |       0.1180 |       0.1582 |       0.1141 |       0.1576 |       0.1459 |       0.1889 |       0.1453 |       0.1871 |
dl2.wb_rate                                 0.0171 |       0.0171 |       0.0000 |       0.0000 |       0.0066 |       0.0066 |       0.0000 |       0.0000 |       0.0031 |       0.0031 |       0.0000 |       0.0000 |       0.0013 |       0.0013 |       0.0000 |       0.0000 |       0.0006 |       0.0006 |       0.0000 |       0.0000 |       0.0002 |       0.0002 |       0.0000 |       0.0000 |       0.0001 |       0.0032 |       0.0000 |       0.0172 |       0.0014 |       0.0751 |       0.0144 |       0.0677 |       0.0682 |       0.1072 |       0.0614 |       0.1022 |       0.0985 |       0.1369 |       0.0934 |       0.1351 |       0.1263 |       0.1680 |       0.1246 |       0.1652 |
dl2.inv_rate                                0.0000 |       0.0000 |       0.0000 |       0.0000 |       0.0000 |       0.0000 |       0.0000 |       0.0000 |       0.0000 |       0.0000 |       0.0000 |       0.0000 |       0.0000 |       0.0000 |       0.0000 |       0.0000 |       0.0000 |       0.0000 |       0.0000 |       0.0000 |       0.0000 |       0.0000 |       0.0000 |       0.0000 |       0.0000 |       0.0000 |       0.0000 |       0.0000 |       0.0000 |       0.0000 |       0.0000 |       0.0000 |       0.0000 |       0.0000 |       0.0000 |       0.0000 |       0.0000 |       0.0000 |       0.0000 |       0.0000 |       0.0000 |       0.0000 |       0.0000 |       0.0000 |
itlb.accesses                               868489 |       868489 |       868489 |       868489 |      1867503 |      1867503 |      1867503 |      1867503 |      4000499 |      4000499 |      4000499 |      4000499 |      8532667 |      8532667 |      8532667 |      8532667 |     18154401 |     18154401 |     18154401 |     18154401 |     38442364 |     38442364 |     38442364 |     38442364 |     81265370 |     81265370 |     81265370 |     81265370 |    171085994 |    171085994 |    171085994 |    171085994 |    359770545 |    359770545 |    359770545 |    359770545 |    753717729 |    753717729 |    753717729 |    753717729 |   1577777152 |   1577777152 |   1577777152 |   1577777152 |
itlb.hits                                   868480 |       868480 |       868480 |       868480 |      1867494 |      1867494 |      1867494 |      1867494 |      4000490 |      4000490 |      4000490 |      4000490 |      8532658 |      8532658 |      8532658 |      8532658 |     18154392 |     18154392 |     18154392 |     18154392 |     38442355 |     38442355 |     38442355 |     38442355 |     81265361 |     81265361 |     81265361 |     81265361 |    171085985 |    171085985 |    171085985 |    171085985 |    359770536 |    359770536 |    359770536 |    359770536 |    753717720 |    753717720 |    753717720 |    753717720 |   1577777143 |   1577777143 |   1577777143 |   1577777143 |
itlb.misses                                      9 |            9 |            9 |            9 |            9 |            9 |            9 |            9 |            9 |            9 |            9 |            9 |            9 |            9 |            9 |            9 |            9 |            9 |            9 |            9 |            9 |            9 |            9 |            9 |            9 |            9 |            9 |            9 |            9 |            9 |            9 |            9 |            9 |            9 |            9 |            9 |            9 |            9 |            9 |            9 |            9 |            9 |            9 |            9 |
itlb.replacements                                0 |            0 |            0 |            0 |            0 |            0 |            0 |            0 |            0 |            0 |            0 |            0 |            0 |            0 |            0 |            0 |            0 |            0 |            0 |            0 |            0 |            0 |            0 |            0 |            0 |            0 |            0 |            0 |            0 |            0 |            0 |            0 |            0 |            0 |            0 |            0 |            0 |            0 |            0 |            0 |            0 |            0 |            0 |            0 |
itlb.writebacks                                  0 |            0 |            0 |            0 |            0 |            0 |            0 |            0 |            0 |            0 |            0 |            0 |            0 |            0 |            0 |            0 |            0 |            0 |            0 |            0 |            0 |            0 |            0 |            0 |            0 |            0 |            0 |            0 |            0 |            0 |            0 |            0 |            0 |            0 |            0 |            0 |            0 |            0 |            0 |            0 |            0 |            0 |            0 |            0 |
itlb.invalidations                               0 |            0 |            0 |            0 |            0 |            0 |            0 |            0 |            0 |            0 |            0 |            0 |            0 |            0 |            0 |            0 |            0 |            0 |            0 |            0 |            0 |            0 |            0 |            0 |            0 |            0 |            0 |            0 |            0 |            0 |            0 |            0 |            0 |            0 |            0 |            0 |            0 |            0 |            0 |            0 |            0 |            0 |            0 |            0 |
itlb.miss_rate                              0.0000 |       0.0000 |       0.0000 |       0.0000 |       0.0000 |       0.0000 |       0.0000 |       0.0000 |       0.0000 |       0.0000 |       0.0000 |       0.0000 |       0.0000 |       0.0000 |       0.0000 |       0.0000 |       0.0000 |       0.0000 |       0.0000 |       0.0000 |       0.0000 |       0.0000 |       0.0000 |       0.0000 |       0.0000 |       0.0000 |       0.0000 |       0.0000 |       0.0000 |       0.0000 |       0.0000 |       0.0000 |       0.0000 |       0.0000 |       0.0000 |       0.0000 |       0.0000 |       0.0000 |       0.0000 |       0.0000 |       0.0000 |       0.0000 |       0.0000 |       0.0000 |
itlb.repl_rate                              0.0000 |       0.0000 |       0.0000 |       0.0000 |       0.0000 |       0.0000 |       0.0000 |       0.0000 |       0.0000 |       0.0000 |       0.0000 |       0.0000 |       0.0000 |       0.0000 |       0.0000 |       0.0000 |       0.0000 |       0.0000 |       0.0000 |       0.0000 |       0.0000 |       0.0000 |       0.0000 |       0.0000 |       0.0000 |       0.0000 |       0.0000 |       0.0000 |       0.0000 |       0.0000 |       0.0000 |       0.0000 |       0.0000 |       0.0000 |       0.0000 |       0.0000 |       0.0000 |       0.0000 |       0.0000 |       0.0000 |       0.0000 |       0.0000 |       0.0000 |       0.0000 |
itlb.wb_rate                                0.0000 |       0.0000 |       0.0000 |       0.0000 |       0.0000 |       0.0000 |       0.0000 |       0.0000 |       0.0000 |       0.0000 |       0.0000 |       0.0000 |       0.0000 |       0.0000 |       0.0000 |       0.0000 |       0.0000 |       0.0000 |       0.0000 |       0.0000 |       0.0000 |       0.0000 |       0.0000 |       0.0000 |       0.0000 |       0.0000 |       0.0000 |       0.0000 |       0.0000 |       0.0000 |       0.0000 |       0.0000 |       0.0000 |       0.0000 |       0.0000 |       0.0000 |       0.0000 |       0.0000 |       0.0000 |       0.0000 |       0.0000 |       0.0000 |       0.0000 |       0.0000 |
itlb.inv_rate                               0.0000 |       0.0000 |       0.0000 |       0.0000 |       0.0000 |       0.0000 |       0.0000 |       0.0000 |       0.0000 |       0.0000 |       0.0000 |       0.0000 |       0.0000 |       0.0000 |       0.0000 |       0.0000 |       0.0000 |       0.0000 |       0.0000 |       0.0000 |       0.0000 |       0.0000 |       0.0000 |       0.0000 |       0.0000 |       0.0000 |       0.0000 |       0.0000 |       0.0000 |       0.0000 |       0.0000 |       0.0000 |       0.0000 |       0.0000 |       0.0000 |       0.0000 |       0.0000 |       0.0000 |       0.0000 |       0.0000 |       0.0000 |       0.0000 |       0.0000 |       0.0000 |
dtlb.accesses                               234043 |       234043 |       234043 |       234043 |       497280 |       497280 |       497280 |       497280 |      1056490 |      1056490 |      1056490 |      1056490 |      2239208 |      2239208 |      2239208 |      2239208 |      4739345 |      4739345 |      4739345 |      4739345 |      9992405 |      9992405 |      9992405 |      9992405 |     21040515 |     21040515 |     21040515 |     21040515 |     44151815 |     44151815 |     44151815 |     44151815 |     92555280 |     92555280 |     92555280 |     92555280 |    193387397 |    193387397 |    193387397 |    193387397 |    403743234 |    403743234 |    403743234 |    403743234 |
dtlb.hits                                   234027 |       234027 |       234027 |       234027 |       497256 |       497256 |       497256 |       497256 |      1056450 |      1056450 |      1056450 |      1056450 |      2239136 |      2239136 |      2239136 |      2239136 |      4739198 |      4739198 |      4739198 |      4739198 |      9991569 |      9991569 |      9991569 |      9991569 |     20983469 |     20983469 |     20983469 |     20983469 |     43800322 |     43800322 |     43800322 |     43800322 |     91260909 |     91260909 |     91260909 |     91260909 |    189533541 |    189533541 |    189533541 |    189533541 |    393444453 |    393444453 |    393444453 |    393444453 |
dtlb.misses                                     16 |           16 |           16 |           16 |           24 |           24 |           24 |           24 |           40 |           40 |           40 |           40 |           72 |           72 |           72 |           72 |          147 |          147 |          147 |          147 |          836 |          836 |          836 |          836 |        57046 |        57046 |        57046 |        57046 |       351493 |       351493 |       351493 |       351493 |      1294371 |      1294371 |      1294371 |      1294371 |      3853856 |      3853856 |      3853856 |      3853856 |     10298781 |     10298781 |     10298781 |     10298781 |
dtlb.replacements                                0 |            0 |            0 |            0 |            0 |            0 |            0 |            0 |            0 |            0 |            0 |            0 |            0 |            0 |            0 |            0 |           19 |           19 |           19 |           19 |          708 |          708 |          708 |          708 |        56918 |        56918 |        56918 |        56918 |       351365 |       351365 |       351365 |       351365 |      1294243 |      1294243 |      1294243 |      1294243 |      3853728 |      3853728 |      3853728 |      3853728 |     10298653 |     10298653 |     10298653 |     10298653 |
dtlb.writebacks                                  0 |            0 |            0 |            0 |            0 |            0 |            0 |            0 |            0 |            0 |            0 |            0 |            0 |            0 |            0 |            0 |           16 |           16 |           16 |           16 |          581 |          581 |          581 |          581 |        53833 |        53833 |        53833 |        53833 |       332617 |       332617 |       332617 |       332617 |      1234883 |      1234883 |      1234883 |      1234883 |      3704511 |      3704511 |      3704511 |      3704511 |      9963311 |      9963311 |      9963311 |      9963311 |
dtlb.invalidations                               0 |            0 |            0 |            0 |            0 |            0 |            0 |            0 |            0 |            0 |            0 |            0 |            0 |            0 |            0 |            0 |            0 |            0 |            0 |            0 |            0 |            0 |            0 |            0 |            0 |            0 |            0 |            0 |            0 |            0 |            0 |            0 |            0 |            0 |            0 |            0 |            0 |            0 |            0 |            0 |            0 |            0 |            0 |            0 |
dtlb.miss_rate                              0.0001 |       0.0001 |       0.0001 |       0.0001 |       0.0000 |       0.0000 |       0.0000 |       0.0000 |       0.0000 |       0.0000 |       0.0000 |       0.0000 |       0.0000 |       0.0000 |       0.0000 |       0.0000 |       0.0000 |       0.0000 |       0.0000 |       0.0000 |       0.0001 |       0.0001 |       0.0001 |       0.0001 |       0.0027 |       0.0027 |       0.0027 |       0.0027 |       0.0080 |       0.0080 |       0.0080 |       0.0080 |       0.0140 |       0.0140 |       0.0140 |       0.0140 |       0.0199 |       0.0199 |       0.0199 |       0.0199 |       0.0255 |       0.0255 |       0.0255 |       0.0255 |
dtlb.repl_rate                              0.0000 |       0.0000 |       0.0000 |       0.0000 |       0.0000 |       0.0000 |       0.0000 |       0.0000 |       0.0000 |       0.0000 |       0.0000 |       0.0000 |       0.0000 |       0.0000 |       0.0000 |       0.0000 |       0.0000 |       0.0000 |       0.0000 |       0.0000 |       0.0001 |       0.0001 |       0.0001 |       0.0001 |       0.0027 |       0.0027 |       0.0027 |       0.0027 |       0.0080 |       0.0080 |       0.0080 |       0.0080 |       0.0140 |       0.0140 |       0.0140 |       0.0140 |       0.0199 |       0.0199 |       0.0199 |       0.0199 |       0.0255 |       0.0255 |       0.0255 |       0.0255 |
dtlb.wb_rate                                0.0000 |       0.0000 |       0.0000 |       0.0000 |       0.0000 |       0.0000 |       0.0000 |       0.0000 |       0.0000 |       0.0000 |       0.0000 |       0.0000 |       0.0000 |       0.0000 |       0.0000 |       0.0000 |       0.0000 |       0.0000 |       0.0000 |       0.0000 |       0.0001 |       0.0001 |       0.0001 |       0.0001 |       0.0026 |       0.0026 |       0.0026 |       0.0026 |       0.0075 |       0.0075 |       0.0075 |       0.0075 |       0.0133 |       0.0133 |       0.0133 |       0.0133 |       0.0192 |       0.0192 |       0.0192 |       0.0192 |       0.0247 |       0.0247 |       0.0247 |       0.0247 |
dtlb.inv_rate                               0.0000 |       0.0000 |       0.0000 |       0.0000 |       0.0000 |       0.0000 |       0.0000 |       0.0000 |       0.0000 |       0.0000 |       0.0000 |       0.0000 |       0.0000 |       0.0000 |       0.0000 |       0.0000 |       0.0000 |       0.0000 |       0.0000 |       0.0000 |       0.0000 |       0.0000 |       0.0000 |       0.0000 |       0.0000 |       0.0000 |       0.0000 |       0.0000 |       0.0000 |       0.0000 |       0.0000 |       0.0000 |       0.0000 |       0.0000 |       0.0000 |       0.0000 |       0.0000 |       0.0000 |       0.0000 |       0.0000 |       0.0000 |       0.0000 |       0.0000 |       0.0000 |
ld_text_base                            0x00400000 |   0x00400000 |   0x00400000 |   0x00400000 |   0x00400000 |   0x00400000 |   0x00400000 |   0x00400000 |   0x00400000 |   0x00400000 |   0x00400000 |   0x00400000 |   0x00400000 |   0x00400000 |   0x00400000 |   0x00400000 |   0x00400000 |   0x00400000 |   0x00400000 |   0x00400000 |   0x00400000 |   0x00400000 |   0x00400000 |   0x00400000 |   0x00400000 |   0x00400000 |   0x00400000 |   0x00400000 |   0x00400000 |   0x00400000 |   0x00400000 |   0x00400000 |   0x00400000 |   0x00400000 |   0x00400000 |   0x00400000 |   0x00400000 |   0x00400000 |   0x00400000 |   0x00400000 |   0x00400000 |   0x00400000 |   0x00400000 |   0x00400000 |
ld_text_size                                 74304 |        74304 |        74304 |        74304 |        74336 |        74336 |        74336 |        74336 |        74352 |        74352 |        74352 |        74352 |        74368 |        74368 |        74368 |        74368 |        74368 |        74368 |        74368 |        74368 |        74368 |        74368 |        74368 |        74368 |        74368 |        74368 |        74368 |        74368 |        74368 |        74368 |        74368 |        74368 |        74368 |        74368 |        74368 |        74368 |        74368 |        74368 |        74368 |        74368 |        74368 |        74368 |        74368 |        74368 |
ld_data_base                            0x10000000 |   0x10000000 |   0x10000000 |   0x10000000 |   0x10000000 |   0x10000000 |   0x10000000 |   0x10000000 |   0x10000000 |   0x10000000 |   0x10000000 |   0x10000000 |   0x10000000 |   0x10000000 |   0x10000000 |   0x10000000 |   0x10000000 |   0x10000000 |   0x10000000 |   0x10000000 |   0x10000000 |   0x10000000 |   0x10000000 |   0x10000000 |   0x10000000 |   0x10000000 |   0x10000000 |   0x10000000 |   0x10000000 |   0x10000000 |   0x10000000 |   0x10000000 |   0x10000000 |   0x10000000 |   0x10000000 |   0x10000000 |   0x10000000 |   0x10000000 |   0x10000000 |   0x10000000 |   0x10000000 |   0x10000000 |   0x10000000 |   0x10000000 |
ld_data_size                                  8192 |         8192 |         8192 |         8192 |         8192 |         8192 |         8192 |         8192 |         8192 |         8192 |         8192 |         8192 |         8192 |         8192 |         8192 |         8192 |         8192 |         8192 |         8192 |         8192 |         8192 |         8192 |         8192 |         8192 |         8192 |         8192 |         8192 |         8192 |         8192 |         8192 |         8192 |         8192 |         8192 |         8192 |         8192 |         8192 |         8192 |         8192 |         8192 |         8192 |         8192 |         8192 |         8192 |         8192 |
ld_stack_base                           0x7fffc000 |   0x7fffc000 |   0x7fffc000 |   0x7fffc000 |   0x7fffc000 |   0x7fffc000 |   0x7fffc000 |   0x7fffc000 |   0x7fffc000 |   0x7fffc000 |   0x7fffc000 |   0x7fffc000 |   0x7fffc000 |   0x7fffc000 |   0x7fffc000 |   0x7fffc000 |   0x7fffc000 |   0x7fffc000 |   0x7fffc000 |   0x7fffc000 |   0x7fffc000 |   0x7fffc000 |   0x7fffc000 |   0x7fffc000 |   0x7fffc000 |   0x7fffc000 |   0x7fffc000 |   0x7fffc000 |   0x7fffc000 |   0x7fffc000 |   0x7fffc000 |   0x7fffc000 |   0x7fffc000 |   0x7fffc000 |   0x7fffc000 |   0x7fffc000 |   0x7fffc000 |   0x7fffc000 |   0x7fffc000 |   0x7fffc000 |   0x7fffc000 |   0x7fffc000 |   0x7fffc000 |   0x7fffc000 |
ld_stack_size                                16384 |        16384 |        16384 |        16384 |        16384 |        16384 |        16384 |        16384 |        16384 |        16384 |        16384 |        16384 |        16384 |        16384 |        16384 |        16384 |        16384 |        16384 |        16384 |        16384 |        16384 |        16384 |        16384 |        16384 |        16384 |        16384 |        16384 |        16384 |        16384 |        16384 |        16384 |        16384 |        16384 |        16384 |        16384 |        16384 |        16384 |        16384 |        16384 |        16384 |        16384 |        16384 |        16384 |        16384 |
ld_prog_entry                           0x00400140 |   0x00400140 |   0x00400140 |   0x00400140 |   0x00400140 |   0x00400140 |   0x00400140 |   0x00400140 |   0x00400140 |   0x00400140 |   0x00400140 |   0x00400140 |   0x00400140 |   0x00400140 |   0x00400140 |   0x00400140 |   0x00400140 |   0x00400140 |   0x00400140 |   0x00400140 |   0x00400140 |   0x00400140 |   0x00400140 |   0x00400140 |   0x00400140 |   0x00400140 |   0x00400140 |   0x00400140 |   0x00400140 |   0x00400140 |   0x00400140 |   0x00400140 |   0x00400140 |   0x00400140 |   0x00400140 |   0x00400140 |   0x00400140 |   0x00400140 |   0x00400140 |   0x00400140 |   0x00400140 |   0x00400140 |   0x00400140 |   0x00400140 |
ld_environ_base                         0x7fff8000 |   0x7fff8000 |   0x7fff8000 |   0x7fff8000 |   0x7fff8000 |   0x7fff8000 |   0x7fff8000 |   0x7fff8000 |   0x7fff8000 |   0x7fff8000 |   0x7fff8000 |   0x7fff8000 |   0x7fff8000 |   0x7fff8000 |   0x7fff8000 |   0x7fff8000 |   0x7fff8000 |   0x7fff8000 |   0x7fff8000 |   0x7fff8000 |   0x7fff8000 |   0x7fff8000 |   0x7fff8000 |   0x7fff8000 |   0x7fff8000 |   0x7fff8000 |   0x7fff8000 |   0x7fff8000 |   0x7fff8000 |   0x7fff8000 |   0x7fff8000 |   0x7fff8000 |   0x7fff8000 |   0x7fff8000 |   0x7fff8000 |   0x7fff8000 |   0x7fff8000 |   0x7fff8000 |   0x7fff8000 |   0x7fff8000 |   0x7fff8000 |   0x7fff8000 |   0x7fff8000 |   0x7fff8000 |
ld_target_big_endian                             0 |            0 |            0 |            0 |            0 |            0 |            0 |            0 |            0 |            0 |            0 |            0 |            0 |            0 |            0 |            0 |            0 |            0 |            0 |            0 |            0 |            0 |            0 |            0 |            0 |            0 |            0 |            0 |            0 |            0 |            0 |            0 |            0 |            0 |            0 |            0 |            0 |            0 |            0 |            0 |            0 |            0 |            0 |            0 |
mem.page_count                                  35 |           35 |           35 |           35 |           43 |           43 |           43 |           43 |           59 |           59 |           59 |           59 |           91 |           91 |           91 |           91 |          155 |          155 |          155 |          155 |          283 |          283 |          283 |          283 |          539 |          539 |          539 |          539 |         1051 |         1051 |         1051 |         1051 |         2081 |         2081 |         2081 |         2081 |         4135 |         4135 |         4135 |         4135 |         8243 |         8243 |         8243 |         8243 |
mem.page_mem                                  140k |         140k |         140k |         140k |         172k |         172k |         172k |         172k |         236k |         236k |         236k |         236k |         364k |         364k |         364k |         364k |         620k |         620k |         620k |         620k |        1132k |        1132k |        1132k |        1132k |        2156k |        2156k |        2156k |        2156k |        4204k |        4204k |        4204k |        4204k |        8324k |        8324k |        8324k |        8324k |       16540k |       16540k |       16540k |       16540k |       32972k |       32972k |       32972k |       32972k |
mem.ptab_misses                                 35 |           35 |           35 |           35 |           43 |           43 |           43 |           43 |           59 |           59 |           59 |           59 |           91 |           91 |           91 |           91 |          155 |          155 |          155 |          155 |          283 |          283 |          283 |          283 |          539 |          539 |          539 |          539 |         1051 |         1051 |         1051 |         1051 |         9230 |         9230 |         9230 |         9230 |        23490 |        23490 |        23490 |        23490 |        64454 |        64454 |        64454 |        64454 |
mem.ptab_accesses                          4402456 |      4402456 |      4402456 |      4402456 |      8925178 |      8925178 |      8925178 |      8925178 |     18575678 |     18575678 |     18575678 |     18575678 |     39069882 |     39069882 |     39069882 |     39069882 |     82557092 |     82557092 |     82557092 |     82557092 |    174215064 |    174215064 |    174215064 |    174215064 |    367603308 |    367603308 |    367603308 |    367603308 |    773108404 |    773108404 |    773108404 |    773108404 |   1624653538 |   1624653538 |   1624653538 |   1624653538 |   3402106508 |   3402106508 |   3402106508 |   3402106508 |   7119055874 |   7119055874 |   7119055874 |   7119055874 |
mem.ptab_miss_rate                          0.0000 |       0.0000 |       0.0000 |       0.0000 |       0.0000 |       0.0000 |       0.0000 |       0.0000 |       0.0000 |       0.0000 |       0.0000 |       0.0000 |       0.0000 |       0.0000 |       0.0000 |       0.0000 |       0.0000 |       0.0000 |       0.0000 |       0.0000 |       0.0000 |       0.0000 |       0.0000 |       0.0000 |       0.0000 |       0.0000 |       0.0000 |       0.0000 |       0.0000 |       0.0000 |       0.0000 |       0.0000 |       0.0000 |       0.0000 |       0.0000 |       0.0000 |       0.0000 |       0.0000 |       0.0000 |       0.0000 |       0.0000 |       0.0000 |       0.0000 |       0.0000 |
-------------------------------------------------------------------------------------------------
sim-bpred                                     4096 |         4096 |         4096 |         4096 |         4096 |         4096 |         4096 |         8192 |         8192 |         8192 |         8192 |         8192 |         8192 |         8192 |        16384 |        16384 |        16384 |        16384 |        16384 |        16384 |        16384 |        32768 |        32768 |        32768 |        32768 |        32768 |        32768 |        32768 |        65536 |        65536 |        65536 |        65536 |        65536 |        65536 |        65536 |       131072 |       131072 |       131072 |       131072 |       131072 |       131072 |       131072 |       262144 |       262144 |       262144 |       262144 |       262144 |       262144 |       262144 |       524288 |       524288 |       524288 |       524288 |       524288 |       524288 |       524288 |      1048576 |      1048576 |      1048576 |      1048576 |      1048576 |      1048576 |      1048576 |      2097152 |      2097152 |      2097152 |      2097152 |      2097152 |      2097152 |      2097152 |      4194304 |      4194304 |      4194304 |      4194304 |      4194304 |      4194304 |      4194304 |
-bpred bimod -bpred:bimod 512
-bpred bimod -bpred:bimod 1024
-bpred bimod -bpred:bimod 2048
-bpred 2lev -bpred:2lev 1 512 10 1
-bpred 2lev -bpred:2lev 1 1024 10 1
-bpred 2lev -bpred:2lev 1 2048 10 1
-bpred 2lev -bpred:2lev 1 4096 10 1
-------------------------------------------------------------------------------------------------
sim_num_insn                                868489 |       868489 |       868489 |       868489 |       868489 |       868489 |       868489 |      1867503 |      1867503 |      1867503 |      1867503 |      1867503 |      1867503 |      1867503 |      4000499 |      4000499 |      4000499 |      4000499 |      4000499 |      4000499 |      4000499 |      8532667 |      8532667 |      8532667 |      8532667 |      8532667 |      8532667 |      8532667 |     18154401 |     18154401 |     18154401 |     18154401 |     18154401 |     18154401 |     18154401 |     38442364 |     38442364 |     38442364 |     38442364 |     38442364 |     38442364 |     38442364 |     81265370 |     81265370 |     81265370 |     81265370 |     81265370 |     81265370 |     81265370 |    171085994 |    171085994 |    171085994 |    171085994 |    171085994 |    171085994 |    171085994 |    359770545 |    359770545 |    359770545 |    359770545 |    359770545 |    359770545 |    359770545 |    753717729 |    753717729 |    753717729 |    753717729 |    753717729 |    753717729 |    753717729 |   1577777152 |   1577777152 |   1577777152 |   1577777152 |   1577777152 |   1577777152 |   1577777152 |
sim_num_refs                                217577 |       217577 |       217577 |       217577 |       217577 |       217577 |       217577 |       464430 |       464430 |       464430 |       464430 |       464430 |       464430 |       464430 |       990872 |       990872 |       990872 |       990872 |       990872 |       990872 |       990872 |      2108054 |      2108054 |      2108054 |      2108054 |      2108054 |      2108054 |      2108054 |      4477119 |      4477119 |      4477119 |      4477119 |      4477119 |      4477119 |      4477119 |      9468035 |      9468035 |      9468035 |      9468035 |      9468035 |      9468035 |      9468035 |     19991857 |     19991857 |     19991857 |     19991857 |     19991857 |     19991857 |     19991857 |     42054581 |     42054581 |     42054581 |     42054581 |     42054581 |     42054581 |     42054581 |     88360894 |     88360894 |     88360894 |     88360894 |     88360894 |     88360894 |     88360894 |    184998707 |    184998707 |    184998707 |    184998707 |    184998707 |    184998707 |    184998707 |    386965936 |    386965936 |    386965936 |    386965936 |    386965936 |    386965936 |    386965936 |
sim_elapsed_time                                 1 |            1 |            1 |            1 |            1 |            1 |            1 |            1 |            1 |            1 |            1 |            1 |            1 |            1 |            1 |            1 |            1 |            1 |            1 |            1 |            1 |            1 |            1 |            1 |            1 |            1 |            1 |            1 |            3 |            2 |            2 |            2 |            3 |            2 |            2 |            5 |            5 |            4 |            5 |            5 |            5 |            5 |            9 |           10 |           10 |           10 |           10 |           10 |           10 |           20 |           21 |           21 |           21 |           20 |           21 |           20 |           43 |           44 |           43 |           44 |           44 |           44 |           44 |           92 |           91 |           91 |           92 |           92 |           92 |           92 |          187 |          188 |          189 |          190 |          192 |          190 |          191 |
sim_inst_rate                          868489.0000 |  868489.0000 |  868489.0000 |  868489.0000 |  868489.0000 |  868489.0000 |  868489.0000 | 1867503.0000 | 1867503.0000 | 1867503.0000 | 1867503.0000 | 1867503.0000 | 1867503.0000 | 1867503.0000 | 4000499.0000 | 4000499.0000 | 4000499.0000 | 4000499.0000 | 4000499.0000 | 4000499.0000 | 4000499.0000 | 8532667.0000 | 8532667.0000 | 8532667.0000 | 8532667.0000 | 8532667.0000 | 8532667.0000 | 8532667.0000 | 6051467.0000 | 9077200.5000 | 9077200.5000 | 9077200.5000 | 6051467.0000 | 9077200.5000 | 9077200.5000 | 7688472.8000 | 7688472.8000 | 9610591.0000 | 7688472.8000 | 7688472.8000 | 7688472.8000 | 7688472.8000 | 9029485.5556 | 8126537.0000 | 8126537.0000 | 8126537.0000 | 8126537.0000 | 8126537.0000 | 8126537.0000 | 8554299.7000 | 8146952.0952 | 8146952.0952 | 8146952.0952 | 8554299.7000 | 8146952.0952 | 8554299.7000 | 8366756.8605 | 8176603.2955 | 8366756.8605 | 8176603.2955 | 8176603.2955 | 8176603.2955 | 8176603.2955 | 8192584.0109 | 8282612.4066 | 8282612.4066 | 8192584.0109 | 8192584.0109 | 8192584.0109 | 8192584.0109 | 8437310.9733 | 8392431.6596 | 8348027.2593 | 8304090.2737 | 8217589.3333 | 8304090.2737 | 8260613.3613 |
sim_num_branches                            154618 |       154618 |       154618 |       154618 |       154618 |       154618 |       154618 |       333274 |       333274 |       333274 |       333274 |       333274 |       333274 |       333274 |       715089 |       715089 |       715089 |       715089 |       715089 |       715089 |       715089 |      1527188 |      1527188 |      1527188 |      1527188 |      1527188 |      1527188 |      1527188 |      3252055 |      3252055 |      3252055 |      3252055 |      3252055 |      3252055 |      3252055 |      6891920 |      6891920 |      6891920 |      6891920 |      6891920 |      6891920 |      6891920 |     14577506 |     14577506 |     14577506 |     14577506 |     14577506 |     14577506 |     14577506 |     30711138 |     30711138 |     30711138 |     30711138 |     30711138 |     30711138 |     30711138 |     64606023 |     64606023 |     64606023 |     64606023 |     64606023 |     64606023 |     64606023 |    135423741 |    135423741 |    135423741 |    135423741 |    135423741 |    135423741 |    135423741 |    283581783 |    283581783 |    283581783 |    283581783 |    283581783 |    283581783 |    283581783 |
sim_IPB                                     5.6170 |       5.6170 |       5.6170 |       5.6170 |       5.6170 |       5.6170 |       5.6170 |       5.6035 |       5.6035 |       5.6035 |       5.6035 |       5.6035 |       5.6035 |       5.6035 |       5.5944 |       5.5944 |       5.5944 |       5.5944 |       5.5944 |       5.5944 |       5.5944 |       5.5872 |       5.5872 |       5.5872 |       5.5872 |       5.5872 |       5.5872 |       5.5872 |       5.5824 |       5.5824 |       5.5824 |       5.5824 |       5.5824 |       5.5824 |       5.5824 |       5.5779 |       5.5779 |       5.5779 |       5.5779 |       5.5779 |       5.5779 |       5.5779 |       5.5747 |       5.5747 |       5.5747 |       5.5747 |       5.5747 |       5.5747 |       5.5747 |       5.5708 |       5.5708 |       5.5708 |       5.5708 |       5.5708 |       5.5708 |       5.5708 |       5.5687 |       5.5687 |       5.5687 |       5.5687 |       5.5687 |       5.5687 |       5.5687 |       5.5656 |       5.5656 |       5.5656 |       5.5656 |       5.5656 |       5.5656 |       5.5656 |       5.5637 |       5.5637 |       5.5637 |       5.5637 |       5.5637 |       5.5637 |       5.5637 |
bpred_bimod.lookups                         154618 |       154618 |       154618 |xxxxxxxxxxxxx |xxxxxxxxxxxxx |xxxxxxxxxxxxx |xxxxxxxxxxxxx |       333274 |       333274 |       333274 |xxxxxxxxxxxxx |xxxxxxxxxxxxx |xxxxxxxxxxxxx |xxxxxxxxxxxxx |       715089 |       715089 |       715089 |xxxxxxxxxxxxx |xxxxxxxxxxxxx |xxxxxxxxxxxxx |xxxxxxxxxxxxx |      1527188 |      1527188 |      1527188 |xxxxxxxxxxxxx |xxxxxxxxxxxxx |xxxxxxxxxxxxx |xxxxxxxxxxxxx |      3252055 |      3252055 |      3252055 |xxxxxxxxxxxxx |xxxxxxxxxxxxx |xxxxxxxxxxxxx |xxxxxxxxxxxxx |      6891920 |      6891920 |      6891920 |xxxxxxxxxxxxx |xxxxxxxxxxxxx |xxxxxxxxxxxxx |xxxxxxxxxxxxx |     14577506 |     14577506 |     14577506 |xxxxxxxxxxxxx |xxxxxxxxxxxxx |xxxxxxxxxxxxx |xxxxxxxxxxxxx |     30711138 |     30711138 |     30711138 |xxxxxxxxxxxxx |xxxxxxxxxxxxx |xxxxxxxxxxxxx |xxxxxxxxxxxxx |     64606023 |     64606023 |     64606023 |xxxxxxxxxxxxx |xxxxxxxxxxxxx |xxxxxxxxxxxxx |xxxxxxxxxxxxx |    135423741 |    135423741 |    135423741 |xxxxxxxxxxxxx |xxxxxxxxxxxxx |xxxxxxxxxxxxx |xxxxxxxxxxxxx |    283581783 |    283581783 |    283581783 |
bpred_bimod.updates                         154618 |       154618 |       154618 |xxxxxxxxxxxxx |xxxxxxxxxxxxx |xxxxxxxxxxxxx |xxxxxxxxxxxxx |       333274 |       333274 |       333274 |xxxxxxxxxxxxx |xxxxxxxxxxxxx |xxxxxxxxxxxxx |xxxxxxxxxxxxx |       715089 |       715089 |       715089 |xxxxxxxxxxxxx |xxxxxxxxxxxxx |xxxxxxxxxxxxx |xxxxxxxxxxxxx |      1527188 |      1527188 |      1527188 |xxxxxxxxxxxxx |xxxxxxxxxxxxx |xxxxxxxxxxxxx |xxxxxxxxxxxxx |      3252055 |      3252055 |      3252055 |xxxxxxxxxxxxx |xxxxxxxxxxxxx |xxxxxxxxxxxxx |xxxxxxxxxxxxx |      6891920 |      6891920 |      6891920 |xxxxxxxxxxxxx |xxxxxxxxxxxxx |xxxxxxxxxxxxx |xxxxxxxxxxxxx |     14577506 |     14577506 |     14577506 |xxxxxxxxxxxxx |xxxxxxxxxxxxx |xxxxxxxxxxxxx |xxxxxxxxxxxxx |     30711138 |     30711138 |     30711138 |xxxxxxxxxxxxx |xxxxxxxxxxxxx |xxxxxxxxxxxxx |xxxxxxxxxxxxx |     64606023 |     64606023 |     64606023 |xxxxxxxxxxxxx |xxxxxxxxxxxxx |xxxxxxxxxxxxx |xxxxxxxxxxxxx |    135423741 |    135423741 |    135423741 |xxxxxxxxxxxxx |xxxxxxxxxxxxx |xxxxxxxxxxxxx |xxxxxxxxxxxxx |    283581783 |    283581783 |    283581783 |
bpred_bimod.addr_hits                       124086 |       124094 |       124094 |xxxxxxxxxxxxx |xxxxxxxxxxxxx |xxxxxxxxxxxxx |xxxxxxxxxxxxx |       266653 |       266659 |       266659 |xxxxxxxxxxxxx |xxxxxxxxxxxxx |xxxxxxxxxxxxx |xxxxxxxxxxxxx |       573223 |       573229 |       573230 |xxxxxxxxxxxxx |xxxxxxxxxxxxx |xxxxxxxxxxxxx |xxxxxxxxxxxxx |      1222193 |      1222199 |      1222202 |xxxxxxxxxxxxx |xxxxxxxxxxxxx |xxxxxxxxxxxxx |xxxxxxxxxxxxx |      2604656 |      2604662 |      2604665 |xxxxxxxxxxxxx |xxxxxxxxxxxxx |xxxxxxxxxxxxx |xxxxxxxxxxxxx |      5511975 |      5511982 |      5511984 |xxxxxxxxxxxxx |xxxxxxxxxxxxx |xxxxxxxxxxxxx |xxxxxxxxxxxxx |     11670273 |     11670280 |     11670282 |xxxxxxxxxxxxx |xxxxxxxxxxxxx |xxxxxxxxxxxxx |xxxxxxxxxxxxx |     24566361 |     24566368 |     24566370 |xxxxxxxxxxxxx |xxxxxxxxxxxxx |xxxxxxxxxxxxx |xxxxxxxxxxxxx |     51716139 |     51716145 |     51716146 |xxxxxxxxxxxxx |xxxxxxxxxxxxx |xxxxxxxxxxxxx |xxxxxxxxxxxxx |    108328693 |    108328699 |    108328700 |xxxxxxxxxxxxx |xxxxxxxxxxxxx |xxxxxxxxxxxxx |xxxxxxxxxxxxx |    226980341 |    226980347 |    226980348 |
bpred_bimod.dir_hits                        124208 |       124216 |       124217 |xxxxxxxxxxxxx |xxxxxxxxxxxxx |xxxxxxxxxxxxx |xxxxxxxxxxxxx |       266780 |       266786 |       266786 |xxxxxxxxxxxxx |xxxxxxxxxxxxx |xxxxxxxxxxxxx |xxxxxxxxxxxxx |       573349 |       573355 |       573356 |xxxxxxxxxxxxx |xxxxxxxxxxxxx |xxxxxxxxxxxxx |xxxxxxxxxxxxx |      1222317 |      1222323 |      1222326 |xxxxxxxxxxxxx |xxxxxxxxxxxxx |xxxxxxxxxxxxx |xxxxxxxxxxxxx |      2604780 |      2604786 |      2604789 |xxxxxxxxxxxxx |xxxxxxxxxxxxx |xxxxxxxxxxxxx |xxxxxxxxxxxxx |      5512102 |      5512109 |      5512111 |xxxxxxxxxxxxx |xxxxxxxxxxxxx |xxxxxxxxxxxxx |xxxxxxxxxxxxx |     11670399 |     11670406 |     11670408 |xxxxxxxxxxxxx |xxxxxxxxxxxxx |xxxxxxxxxxxxx |xxxxxxxxxxxxx |     24566487 |     24566494 |     24566496 |xxxxxxxxxxxxx |xxxxxxxxxxxxx |xxxxxxxxxxxxx |xxxxxxxxxxxxx |     51716277 |     51716283 |     51716284 |xxxxxxxxxxxxx |xxxxxxxxxxxxx |xxxxxxxxxxxxx |xxxxxxxxxxxxx |    108328832 |    108328838 |    108328839 |xxxxxxxxxxxxx |xxxxxxxxxxxxx |xxxxxxxxxxxxx |xxxxxxxxxxxxx |    226980480 |    226980486 |    226980487 |
bpred_bimod.misses                           30410 |        30402 |        30401 |xxxxxxxxxxxxx |xxxxxxxxxxxxx |xxxxxxxxxxxxx |xxxxxxxxxxxxx |        66494 |        66488 |        66488 |xxxxxxxxxxxxx |xxxxxxxxxxxxx |xxxxxxxxxxxxx |xxxxxxxxxxxxx |       141740 |       141734 |       141733 |xxxxxxxxxxxxx |xxxxxxxxxxxxx |xxxxxxxxxxxxx |xxxxxxxxxxxxx |       304871 |       304865 |       304862 |xxxxxxxxxxxxx |xxxxxxxxxxxxx |xxxxxxxxxxxxx |xxxxxxxxxxxxx |       647275 |       647269 |       647266 |xxxxxxxxxxxxx |xxxxxxxxxxxxx |xxxxxxxxxxxxx |xxxxxxxxxxxxx |      1379818 |      1379811 |      1379809 |xxxxxxxxxxxxx |xxxxxxxxxxxxx |xxxxxxxxxxxxx |xxxxxxxxxxxxx |      2907107 |      2907100 |      2907098 |xxxxxxxxxxxxx |xxxxxxxxxxxxx |xxxxxxxxxxxxx |xxxxxxxxxxxxx |      6144651 |      6144644 |      6144642 |xxxxxxxxxxxxx |xxxxxxxxxxxxx |xxxxxxxxxxxxx |xxxxxxxxxxxxx |     12889746 |     12889740 |     12889739 |xxxxxxxxxxxxx |xxxxxxxxxxxxx |xxxxxxxxxxxxx |xxxxxxxxxxxxx |     27094909 |     27094903 |     27094902 |xxxxxxxxxxxxx |xxxxxxxxxxxxx |xxxxxxxxxxxxx |xxxxxxxxxxxxx |     56601303 |     56601297 |     56601296 |
bpred_bimod.jr_hits                           4157 |         4157 |         4157 |xxxxxxxxxxxxx |xxxxxxxxxxxxx |xxxxxxxxxxxxx |xxxxxxxxxxxxx |         8261 |         8261 |         8261 |xxxxxxxxxxxxx |xxxxxxxxxxxxx |xxxxxxxxxxxxx |xxxxxxxxxxxxx |        16453 |        16453 |        16453 |xxxxxxxxxxxxx |xxxxxxxxxxxxx |xxxxxxxxxxxxx |xxxxxxxxxxxxx |        32837 |        32837 |        32837 |xxxxxxxxxxxxx |xxxxxxxxxxxxx |xxxxxxxxxxxxx |xxxxxxxxxxxxx |        65605 |        65605 |        65605 |xxxxxxxxxxxxx |xxxxxxxxxxxxx |xxxxxxxxxxxxx |xxxxxxxxxxxxx |       131141 |       131141 |       131141 |xxxxxxxxxxxxx |xxxxxxxxxxxxx |xxxxxxxxxxxxx |xxxxxxxxxxxxx |       262213 |       262213 |       262213 |xxxxxxxxxxxxx |xxxxxxxxxxxxx |xxxxxxxxxxxxx |xxxxxxxxxxxxx |       524357 |       524357 |       524357 |xxxxxxxxxxxxx |xxxxxxxxxxxxx |xxxxxxxxxxxxx |xxxxxxxxxxxxx |      1048648 |      1048648 |      1048648 |xxxxxxxxxxxxx |xxxxxxxxxxxxx |xxxxxxxxxxxxx |xxxxxxxxxxxxx |      2097224 |      2097224 |      2097224 |xxxxxxxxxxxxx |xxxxxxxxxxxxx |xxxxxxxxxxxxx |xxxxxxxxxxxxx |      4194376 |      4194376 |      4194376 |
bpred_bimod.jr_seen                           4157 |         4157 |         4157 |xxxxxxxxxxxxx |xxxxxxxxxxxxx |xxxxxxxxxxxxx |xxxxxxxxxxxxx |         8262 |         8262 |         8262 |xxxxxxxxxxxxx |xxxxxxxxxxxxx |xxxxxxxxxxxxx |xxxxxxxxxxxxx |        16454 |        16454 |        16454 |xxxxxxxxxxxxx |xxxxxxxxxxxxx |xxxxxxxxxxxxx |xxxxxxxxxxxxx |        32838 |        32838 |        32838 |xxxxxxxxxxxxx |xxxxxxxxxxxxx |xxxxxxxxxxxxx |xxxxxxxxxxxxx |        65606 |        65606 |        65606 |xxxxxxxxxxxxx |xxxxxxxxxxxxx |xxxxxxxxxxxxx |xxxxxxxxxxxxx |       131142 |       131142 |       131142 |xxxxxxxxxxxxx |xxxxxxxxxxxxx |xxxxxxxxxxxxx |xxxxxxxxxxxxx |       262214 |       262214 |       262214 |xxxxxxxxxxxxx |xxxxxxxxxxxxx |xxxxxxxxxxxxx |xxxxxxxxxxxxx |       524358 |       524358 |       524358 |xxxxxxxxxxxxx |xxxxxxxxxxxxx |xxxxxxxxxxxxx |xxxxxxxxxxxxx |      1048649 |      1048649 |      1048649 |xxxxxxxxxxxxx |xxxxxxxxxxxxx |xxxxxxxxxxxxx |xxxxxxxxxxxxx |      2097225 |      2097225 |      2097225 |xxxxxxxxxxxxx |xxxxxxxxxxxxx |xxxxxxxxxxxxx |xxxxxxxxxxxxx |      4194377 |      4194377 |      4194377 |
bpred_bimod.jr_non_ras_hits.PP                   0 |            0 |            0 |xxxxxxxxxxxxx |xxxxxxxxxxxxx |xxxxxxxxxxxxx |xxxxxxxxxxxxx |            0 |            0 |            0 |xxxxxxxxxxxxx |xxxxxxxxxxxxx |xxxxxxxxxxxxx |xxxxxxxxxxxxx |            0 |            0 |            0 |xxxxxxxxxxxxx |xxxxxxxxxxxxx |xxxxxxxxxxxxx |xxxxxxxxxxxxx |            0 |            0 |            0 |xxxxxxxxxxxxx |xxxxxxxxxxxxx |xxxxxxxxxxxxx |xxxxxxxxxxxxx |            0 |            0 |            0 |xxxxxxxxxxxxx |xxxxxxxxxxxxx |xxxxxxxxxxxxx |xxxxxxxxxxxxx |            0 |            0 |            0 |xxxxxxxxxxxxx |xxxxxxxxxxxxx |xxxxxxxxxxxxx |xxxxxxxxxxxxx |            0 |            0 |            0 |xxxxxxxxxxxxx |xxxxxxxxxxxxx |xxxxxxxxxxxxx |xxxxxxxxxxxxx |            0 |            0 |            0 |xxxxxxxxxxxxx |xxxxxxxxxxxxx |xxxxxxxxxxxxx |xxxxxxxxxxxxx |            0 |            0 |            0 |xxxxxxxxxxxxx |xxxxxxxxxxxxx |xxxxxxxxxxxxx |xxxxxxxxxxxxx |            0 |            0 |            0 |xxxxxxxxxxxxx |xxxxxxxxxxxxx |xxxxxxxxxxxxx |xxxxxxxxxxxxx |            0 |            0 |            0 |
bpred_bimod.jr_non_ras_seen.PP                   0 |            0 |            0 |xxxxxxxxxxxxx |xxxxxxxxxxxxx |xxxxxxxxxxxxx |xxxxxxxxxxxxx |            0 |            0 |            0 |xxxxxxxxxxxxx |xxxxxxxxxxxxx |xxxxxxxxxxxxx |xxxxxxxxxxxxx |            0 |            0 |            0 |xxxxxxxxxxxxx |xxxxxxxxxxxxx |xxxxxxxxxxxxx |xxxxxxxxxxxxx |            0 |            0 |            0 |xxxxxxxxxxxxx |xxxxxxxxxxxxx |xxxxxxxxxxxxx |xxxxxxxxxxxxx |            0 |            0 |            0 |xxxxxxxxxxxxx |xxxxxxxxxxxxx |xxxxxxxxxxxxx |xxxxxxxxxxxxx |            0 |            0 |            0 |xxxxxxxxxxxxx |xxxxxxxxxxxxx |xxxxxxxxxxxxx |xxxxxxxxxxxxx |            0 |            0 |            0 |xxxxxxxxxxxxx |xxxxxxxxxxxxx |xxxxxxxxxxxxx |xxxxxxxxxxxxx |            0 |            0 |            0 |xxxxxxxxxxxxx |xxxxxxxxxxxxx |xxxxxxxxxxxxx |xxxxxxxxxxxxx |            1 |            1 |            1 |xxxxxxxxxxxxx |xxxxxxxxxxxxx |xxxxxxxxxxxxx |xxxxxxxxxxxxx |            1 |            1 |            1 |xxxxxxxxxxxxx |xxxxxxxxxxxxx |xxxxxxxxxxxxx |xxxxxxxxxxxxx |            1 |            1 |            1 |
bpred_bimod.bpred_addr_rate                 0.8025 |       0.8026 |       0.8026 |xxxxxxxxxxxxx |xxxxxxxxxxxxx |xxxxxxxxxxxxx |xxxxxxxxxxxxx |       0.8001 |       0.8001 |       0.8001 |xxxxxxxxxxxxx |xxxxxxxxxxxxx |xxxxxxxxxxxxx |xxxxxxxxxxxxx |       0.8016 |       0.8016 |       0.8016 |xxxxxxxxxxxxx |xxxxxxxxxxxxx |xxxxxxxxxxxxx |xxxxxxxxxxxxx |       0.8003 |       0.8003 |       0.8003 |xxxxxxxxxxxxx |xxxxxxxxxxxxx |xxxxxxxxxxxxx |xxxxxxxxxxxxx |       0.8009 |       0.8009 |       0.8009 |xxxxxxxxxxxxx |xxxxxxxxxxxxx |xxxxxxxxxxxxx |xxxxxxxxxxxxx |       0.7998 |       0.7998 |       0.7998 |xxxxxxxxxxxxx |xxxxxxxxxxxxx |xxxxxxxxxxxxx |xxxxxxxxxxxxx |       0.8006 |       0.8006 |       0.8006 |xxxxxxxxxxxxx |xxxxxxxxxxxxx |xxxxxxxxxxxxx |xxxxxxxxxxxxx |       0.7999 |       0.7999 |       0.7999 |xxxxxxxxxxxxx |xxxxxxxxxxxxx |xxxxxxxxxxxxx |xxxxxxxxxxxxx |       0.8005 |       0.8005 |       0.8005 |xxxxxxxxxxxxx |xxxxxxxxxxxxx |xxxxxxxxxxxxx |xxxxxxxxxxxxx |       0.7999 |       0.7999 |       0.7999 |xxxxxxxxxxxxx |xxxxxxxxxxxxx |xxxxxxxxxxxxx |xxxxxxxxxxxxx |       0.8004 |       0.8004 |       0.8004 |
bpred_bimod.bpred_dir_rate                  0.8033 |       0.8034 |       0.8034 |xxxxxxxxxxxxx |xxxxxxxxxxxxx |xxxxxxxxxxxxx |xxxxxxxxxxxxx |       0.8005 |       0.8005 |       0.8005 |xxxxxxxxxxxxx |xxxxxxxxxxxxx |xxxxxxxxxxxxx |xxxxxxxxxxxxx |       0.8018 |       0.8018 |       0.8018 |xxxxxxxxxxxxx |xxxxxxxxxxxxx |xxxxxxxxxxxxx |xxxxxxxxxxxxx |       0.8004 |       0.8004 |       0.8004 |xxxxxxxxxxxxx |xxxxxxxxxxxxx |xxxxxxxxxxxxx |xxxxxxxxxxxxx |       0.8010 |       0.8010 |       0.8010 |xxxxxxxxxxxxx |xxxxxxxxxxxxx |xxxxxxxxxxxxx |xxxxxxxxxxxxx |       0.7998 |       0.7998 |       0.7998 |xxxxxxxxxxxxx |xxxxxxxxxxxxx |xxxxxxxxxxxxx |xxxxxxxxxxxxx |       0.8006 |       0.8006 |       0.8006 |xxxxxxxxxxxxx |xxxxxxxxxxxxx |xxxxxxxxxxxxx |xxxxxxxxxxxxx |       0.7999 |       0.7999 |       0.7999 |xxxxxxxxxxxxx |xxxxxxxxxxxxx |xxxxxxxxxxxxx |xxxxxxxxxxxxx |       0.8005 |       0.8005 |       0.8005 |xxxxxxxxxxxxx |xxxxxxxxxxxxx |xxxxxxxxxxxxx |xxxxxxxxxxxxx |       0.7999 |       0.7999 |       0.7999 |xxxxxxxxxxxxx |xxxxxxxxxxxxx |xxxxxxxxxxxxx |xxxxxxxxxxxxx |       0.8004 |       0.8004 |       0.8004 |
bpred_bimod.bpred_jr_rate                   1.0000 |       1.0000 |       1.0000 |xxxxxxxxxxxxx |xxxxxxxxxxxxx |xxxxxxxxxxxxx |xxxxxxxxxxxxx |       0.9999 |       0.9999 |       0.9999 |xxxxxxxxxxxxx |xxxxxxxxxxxxx |xxxxxxxxxxxxx |xxxxxxxxxxxxx |       0.9999 |       0.9999 |       0.9999 |xxxxxxxxxxxxx |xxxxxxxxxxxxx |xxxxxxxxxxxxx |xxxxxxxxxxxxx |       1.0000 |       1.0000 |       1.0000 |xxxxxxxxxxxxx |xxxxxxxxxxxxx |xxxxxxxxxxxxx |xxxxxxxxxxxxx |       1.0000 |       1.0000 |       1.0000 |xxxxxxxxxxxxx |xxxxxxxxxxxxx |xxxxxxxxxxxxx |xxxxxxxxxxxxx |       1.0000 |       1.0000 |       1.0000 |xxxxxxxxxxxxx |xxxxxxxxxxxxx |xxxxxxxxxxxxx |xxxxxxxxxxxxx |       1.0000 |       1.0000 |       1.0000 |xxxxxxxxxxxxx |xxxxxxxxxxxxx |xxxxxxxxxxxxx |xxxxxxxxxxxxx |       1.0000 |       1.0000 |       1.0000 |xxxxxxxxxxxxx |xxxxxxxxxxxxx |xxxxxxxxxxxxx |xxxxxxxxxxxxx |       1.0000 |       1.0000 |       1.0000 |xxxxxxxxxxxxx |xxxxxxxxxxxxx |xxxxxxxxxxxxx |xxxxxxxxxxxxx |       1.0000 |       1.0000 |       1.0000 |xxxxxxxxxxxxx |xxxxxxxxxxxxx |xxxxxxxxxxxxx |xxxxxxxxxxxxx |       1.0000 |       1.0000 |       1.0000 |
bpred_bimod.bpred_jr_non_ras_rate.PP       <error: |      <error: |      <error: |xxxxxxxxxxxxx |xxxxxxxxxxxxx |xxxxxxxxxxxxx |xxxxxxxxxxxxx |      <error: |      <error: |      <error: |xxxxxxxxxxxxx |xxxxxxxxxxxxx |xxxxxxxxxxxxx |xxxxxxxxxxxxx |      <error: |      <error: |      <error: |xxxxxxxxxxxxx |xxxxxxxxxxxxx |xxxxxxxxxxxxx |xxxxxxxxxxxxx |      <error: |      <error: |      <error: |xxxxxxxxxxxxx |xxxxxxxxxxxxx |xxxxxxxxxxxxx |xxxxxxxxxxxxx |      <error: |      <error: |      <error: |xxxxxxxxxxxxx |xxxxxxxxxxxxx |xxxxxxxxxxxxx |xxxxxxxxxxxxx |      <error: |      <error: |      <error: |xxxxxxxxxxxxx |xxxxxxxxxxxxx |xxxxxxxxxxxxx |xxxxxxxxxxxxx |      <error: |      <error: |      <error: |xxxxxxxxxxxxx |xxxxxxxxxxxxx |xxxxxxxxxxxxx |xxxxxxxxxxxxx |      <error: |      <error: |      <error: |xxxxxxxxxxxxx |xxxxxxxxxxxxx |xxxxxxxxxxxxx |xxxxxxxxxxxxx |       0.0000 |       0.0000 |       0.0000 |xxxxxxxxxxxxx |xxxxxxxxxxxxx |xxxxxxxxxxxxx |xxxxxxxxxxxxx |       0.0000 |       0.0000 |       0.0000 |xxxxxxxxxxxxx |xxxxxxxxxxxxx |xxxxxxxxxxxxx |xxxxxxxxxxxxx |       0.0000 |       0.0000 |       0.0000 |
bpred_bimod.retstack_pushes                   4159 |         4159 |         4159 |xxxxxxxxxxxxx |xxxxxxxxxxxxx |xxxxxxxxxxxxx |xxxxxxxxxxxxx |         8264 |         8264 |         8264 |xxxxxxxxxxxxx |xxxxxxxxxxxxx |xxxxxxxxxxxxx |xxxxxxxxxxxxx |        16456 |        16456 |        16456 |xxxxxxxxxxxxx |xxxxxxxxxxxxx |xxxxxxxxxxxxx |xxxxxxxxxxxxx |        32840 |        32840 |        32840 |xxxxxxxxxxxxx |xxxxxxxxxxxxx |xxxxxxxxxxxxx |xxxxxxxxxxxxx |        65608 |        65608 |        65608 |xxxxxxxxxxxxx |xxxxxxxxxxxxx |xxxxxxxxxxxxx |xxxxxxxxxxxxx |       131144 |       131144 |       131144 |xxxxxxxxxxxxx |xxxxxxxxxxxxx |xxxxxxxxxxxxx |xxxxxxxxxxxxx |       262216 |       262216 |       262216 |xxxxxxxxxxxxx |xxxxxxxxxxxxx |xxxxxxxxxxxxx |xxxxxxxxxxxxx |       524360 |       524360 |       524360 |xxxxxxxxxxxxx |xxxxxxxxxxxxx |xxxxxxxxxxxxx |xxxxxxxxxxxxx |      1048650 |      1048650 |      1048650 |xxxxxxxxxxxxx |xxxxxxxxxxxxx |xxxxxxxxxxxxx |xxxxxxxxxxxxx |      2097226 |      2097226 |      2097226 |xxxxxxxxxxxxx |xxxxxxxxxxxxx |xxxxxxxxxxxxx |xxxxxxxxxxxxx |      4194378 |      4194378 |      4194378 |
bpred_bimod.retstack_pops                     4157 |         4157 |         4157 |xxxxxxxxxxxxx |xxxxxxxxxxxxx |xxxxxxxxxxxxx |xxxxxxxxxxxxx |         8262 |         8262 |         8262 |xxxxxxxxxxxxx |xxxxxxxxxxxxx |xxxxxxxxxxxxx |xxxxxxxxxxxxx |        16454 |        16454 |        16454 |xxxxxxxxxxxxx |xxxxxxxxxxxxx |xxxxxxxxxxxxx |xxxxxxxxxxxxx |        32838 |        32838 |        32838 |xxxxxxxxxxxxx |xxxxxxxxxxxxx |xxxxxxxxxxxxx |xxxxxxxxxxxxx |        65606 |        65606 |        65606 |xxxxxxxxxxxxx |xxxxxxxxxxxxx |xxxxxxxxxxxxx |xxxxxxxxxxxxx |       131142 |       131142 |       131142 |xxxxxxxxxxxxx |xxxxxxxxxxxxx |xxxxxxxxxxxxx |xxxxxxxxxxxxx |       262214 |       262214 |       262214 |xxxxxxxxxxxxx |xxxxxxxxxxxxx |xxxxxxxxxxxxx |xxxxxxxxxxxxx |       524358 |       524358 |       524358 |xxxxxxxxxxxxx |xxxxxxxxxxxxx |xxxxxxxxxxxxx |xxxxxxxxxxxxx |      1048648 |      1048648 |      1048648 |xxxxxxxxxxxxx |xxxxxxxxxxxxx |xxxxxxxxxxxxx |xxxxxxxxxxxxx |      2097224 |      2097224 |      2097224 |xxxxxxxxxxxxx |xxxxxxxxxxxxx |xxxxxxxxxxxxx |xxxxxxxxxxxxx |      4194376 |      4194376 |      4194376 |
bpred_bimod.used_ras.PP                       4157 |         4157 |         4157 |xxxxxxxxxxxxx |xxxxxxxxxxxxx |xxxxxxxxxxxxx |xxxxxxxxxxxxx |         8262 |         8262 |         8262 |xxxxxxxxxxxxx |xxxxxxxxxxxxx |xxxxxxxxxxxxx |xxxxxxxxxxxxx |        16454 |        16454 |        16454 |xxxxxxxxxxxxx |xxxxxxxxxxxxx |xxxxxxxxxxxxx |xxxxxxxxxxxxx |        32838 |        32838 |        32838 |xxxxxxxxxxxxx |xxxxxxxxxxxxx |xxxxxxxxxxxxx |xxxxxxxxxxxxx |        65606 |        65606 |        65606 |xxxxxxxxxxxxx |xxxxxxxxxxxxx |xxxxxxxxxxxxx |xxxxxxxxxxxxx |       131142 |       131142 |       131142 |xxxxxxxxxxxxx |xxxxxxxxxxxxx |xxxxxxxxxxxxx |xxxxxxxxxxxxx |       262214 |       262214 |       262214 |xxxxxxxxxxxxx |xxxxxxxxxxxxx |xxxxxxxxxxxxx |xxxxxxxxxxxxx |       524358 |       524358 |       524358 |xxxxxxxxxxxxx |xxxxxxxxxxxxx |xxxxxxxxxxxxx |xxxxxxxxxxxxx |      1048648 |      1048648 |      1048648 |xxxxxxxxxxxxx |xxxxxxxxxxxxx |xxxxxxxxxxxxx |xxxxxxxxxxxxx |      2097224 |      2097224 |      2097224 |xxxxxxxxxxxxx |xxxxxxxxxxxxx |xxxxxxxxxxxxx |xxxxxxxxxxxxx |      4194376 |      4194376 |      4194376 |
bpred_bimod.ras_hits.PP                       4157 |         4157 |         4157 |xxxxxxxxxxxxx |xxxxxxxxxxxxx |xxxxxxxxxxxxx |xxxxxxxxxxxxx |         8261 |         8261 |         8261 |xxxxxxxxxxxxx |xxxxxxxxxxxxx |xxxxxxxxxxxxx |xxxxxxxxxxxxx |        16453 |        16453 |        16453 |xxxxxxxxxxxxx |xxxxxxxxxxxxx |xxxxxxxxxxxxx |xxxxxxxxxxxxx |        32837 |        32837 |        32837 |xxxxxxxxxxxxx |xxxxxxxxxxxxx |xxxxxxxxxxxxx |xxxxxxxxxxxxx |        65605 |        65605 |        65605 |xxxxxxxxxxxxx |xxxxxxxxxxxxx |xxxxxxxxxxxxx |xxxxxxxxxxxxx |       131141 |       131141 |       131141 |xxxxxxxxxxxxx |xxxxxxxxxxxxx |xxxxxxxxxxxxx |xxxxxxxxxxxxx |       262213 |       262213 |       262213 |xxxxxxxxxxxxx |xxxxxxxxxxxxx |xxxxxxxxxxxxx |xxxxxxxxxxxxx |       524357 |       524357 |       524357 |xxxxxxxxxxxxx |xxxxxxxxxxxxx |xxxxxxxxxxxxx |xxxxxxxxxxxxx |      1048648 |      1048648 |      1048648 |xxxxxxxxxxxxx |xxxxxxxxxxxxx |xxxxxxxxxxxxx |xxxxxxxxxxxxx |      2097224 |      2097224 |      2097224 |xxxxxxxxxxxxx |xxxxxxxxxxxxx |xxxxxxxxxxxxx |xxxxxxxxxxxxx |      4194376 |      4194376 |      4194376 |
bpred_bimod.ras_rate.PP                     1.0000 |       1.0000 |       1.0000 |xxxxxxxxxxxxx |xxxxxxxxxxxxx |xxxxxxxxxxxxx |xxxxxxxxxxxxx |       0.9999 |       0.9999 |       0.9999 |xxxxxxxxxxxxx |xxxxxxxxxxxxx |xxxxxxxxxxxxx |xxxxxxxxxxxxx |       0.9999 |       0.9999 |       0.9999 |xxxxxxxxxxxxx |xxxxxxxxxxxxx |xxxxxxxxxxxxx |xxxxxxxxxxxxx |       1.0000 |       1.0000 |       1.0000 |xxxxxxxxxxxxx |xxxxxxxxxxxxx |xxxxxxxxxxxxx |xxxxxxxxxxxxx |       1.0000 |       1.0000 |       1.0000 |xxxxxxxxxxxxx |xxxxxxxxxxxxx |xxxxxxxxxxxxx |xxxxxxxxxxxxx |       1.0000 |       1.0000 |       1.0000 |xxxxxxxxxxxxx |xxxxxxxxxxxxx |xxxxxxxxxxxxx |xxxxxxxxxxxxx |       1.0000 |       1.0000 |       1.0000 |xxxxxxxxxxxxx |xxxxxxxxxxxxx |xxxxxxxxxxxxx |xxxxxxxxxxxxx |       1.0000 |       1.0000 |       1.0000 |xxxxxxxxxxxxx |xxxxxxxxxxxxx |xxxxxxxxxxxxx |xxxxxxxxxxxxx |       1.0000 |       1.0000 |       1.0000 |xxxxxxxxxxxxx |xxxxxxxxxxxxx |xxxxxxxxxxxxx |xxxxxxxxxxxxx |       1.0000 |       1.0000 |       1.0000 |xxxxxxxxxxxxx |xxxxxxxxxxxxx |xxxxxxxxxxxxx |xxxxxxxxxxxxx |       1.0000 |       1.0000 |       1.0000 |
bpred_2lev.lookups                   xxxxxxxxxxxxx |xxxxxxxxxxxxx |xxxxxxxxxxxxx |       154618 |       154618 |       154618 |       154618 |xxxxxxxxxxxxx |xxxxxxxxxxxxx |xxxxxxxxxxxxx |       333274 |       333274 |       333274 |       333274 |xxxxxxxxxxxxx |xxxxxxxxxxxxx |xxxxxxxxxxxxx |       715089 |       715089 |       715089 |       715089 |xxxxxxxxxxxxx |xxxxxxxxxxxxx |xxxxxxxxxxxxx |      1527188 |      1527188 |      1527188 |      1527188 |xxxxxxxxxxxxx |xxxxxxxxxxxxx |xxxxxxxxxxxxx |      3252055 |      3252055 |      3252055 |      3252055 |xxxxxxxxxxxxx |xxxxxxxxxxxxx |xxxxxxxxxxxxx |      6891920 |      6891920 |      6891920 |      6891920 |xxxxxxxxxxxxx |xxxxxxxxxxxxx |xxxxxxxxxxxxx |     14577506 |     14577506 |     14577506 |     14577506 |xxxxxxxxxxxxx |xxxxxxxxxxxxx |xxxxxxxxxxxxx |     30711138 |     30711138 |     30711138 |     30711138 |xxxxxxxxxxxxx |xxxxxxxxxxxxx |xxxxxxxxxxxxx |     64606023 |     64606023 |     64606023 |     64606023 |xxxxxxxxxxxxx |xxxxxxxxxxxxx |xxxxxxxxxxxxx |    135423741 |    135423741 |    135423741 |    135423741 |xxxxxxxxxxxxx |xxxxxxxxxxxxx |xxxxxxxxxxxxx |    283581783 |    283581783 |    283581783 |    283581783 |
[...]
bpred_2lev.retstack_pushes           xxxxxxxxxxxxx |xxxxxxxxxxxxx |xxxxxxxxxxxxx |         4159 |         4159 |         4159 |         4159 |xxxxxxxxxxxxx |xxxxxxxxxxxxx |xxxxxxxxxxxxx |         8264 |         8264 |         8264 |         8264 |xxxxxxxxxxxxx |xxxxxxxxxxxxx |xxxxxxxxxxxxx |        16456 |        16456 |        16456 |        16456 |xxxxxxxxxxxxx |xxxxxxxxxxxxx |xxxxxxxxxxxxx |        32840 |        32840 |        32840 |        32840 |xxxxxxxxxxxxx |xxxxxxxxxxxxx |xxxxxxxxxxxxx |        65608 |        65608 |        65608 |        65608 |xxxxxxxxxxxxx |xxxxxxxxxxxxx |xxxxxxxxxxxxx |       131144 |       131144 |       131144 |       131144 |xxxxxxxxxxxxx |xxxxxxxxxxxxx |xxxxxxxxxxxxx |       262216 |       262216 |       262216 |       262216 |xxxxxxxxxxxxx |xxxxxxxxxxxxx |xxxxxxxxxxxxx |       524360 |       524360 |       524360 |       524360 |xxxxxxxxxxxxx |xxxxxxxxxxxxx |xxxxxxxxxxxxx |      1048650 |      1048650 |      1048650 |      1048650 |xxxxxxxxxxxxx |xxxxxxxxxxxxx |xxxxxxxxxxxxx |      2097226 |      2097226 |      2097226 |      2097226 |xxxxxxxxxxxxx |xxxxxxxxxxxxx |xxxxxxxxxxxxx |      4194378 |      4194378 |      4194378 |      4194378 |
bpred_2lev.retstack_pops             xxxxxxxxxxxxx |xxxxxxxxxxxxx |xxxxxxxxxxxxx |         4157 |         4157 |         4157 |         4157 |xxxxxxxxxxxxx |xxxxxxxxxxxxx |xxxxxxxxxxxxx |         8262 |         8262 |         8262 |         8262 |xxxxxxxxxxxxx |xxxxxxxxxxxxx |xxxxxxxxxxxxx |        16454 |        16454 |        16454 |        16454 |xxxxxxxxxxxxx |xxxxxxxxxxxxx |xxxxxxxxxxxxx |        32838 |        32838 |        32838 |        32838 |xxxxxxxxxxxxx |xxxxxxxxxxxxx |xxxxxxxxxxxxx |        65606 |        65606 |        65606 |        65606 |xxxxxxxxxxxxx |xxxxxxxxxxxxx |xxxxxxxxxxxxx |       131142 |       131142 |       131142 |       131142 |xxxxxxxxxxxxx |xxxxxxxxxxxxx |xxxxxxxxxxxxx |       262214 |       262214 |       262214 |       262214 |xxxxxxxxxxxxx |xxxxxxxxxxxxx |xxxxxxxxxxxxx |       524358 |       524358 |       524358 |       524358 |xxxxxxxxxxxxx |xxxxxxxxxxxxx |xxxxxxxxxxxxx |      1048648 |      1048648 |      1048648 |      1048648 |xxxxxxxxxxxxx |xxxxxxxxxxxxx |xxxxxxxxxxxxx |      2097224 |      2097224 |      2097224 |      2097224 |xxxxxxxxxxxxx |xxxxxxxxxxxxx |xxxxxxxxxxxxx |      4194376 |      4194376 |      4194376 |      4194376 |
bpred_2lev.used_ras.PP               xxxxxxxxxxxxx |xxxxxxxxxxxxx |xxxxxxxxxxxxx |         4157 |         4157 |         4157 |         4157 |xxxxxxxxxxxxx |xxxxxxxxxxxxx |xxxxxxxxxxxxx |         8262 |         8262 |         8262 |         8262 |xxxxxxxxxxxxx |xxxxxxxxxxxxx |xxxxxxxxxxxxx |        16454 |        16454 |        16454 |        16454 |xxxxxxxxxxxxx |xxxxxxxxxxxxx |xxxxxxxxxxxxx |        32838 |        32838 |        32838 |        32838 |xxxxxxxxxxxxx |xxxxxxxxxxxxx |xxxxxxxxxxxxx |        65606 |        65606 |        65606 |        65606 |xxxxxxxxxxxxx |xxxxxxxxxxxxx |xxxxxxxxxxxxx |       131142 |       131142 |       131142 |       131142 |xxxxxxxxxxxxx |xxxxxxxxxxxxx |xxxxxxxxxxxxx |       262214 |       262214 |       262214 |       262214 |xxxxxxxxxxxxx |xxxxxxxxxxxxx |xxxxxxxxxxxxx |       524358 |       524358 |       524358 |       524358 |xxxxxxxxxxxxx |xxxxxxxxxxxxx |xxxxxxxxxxxxx |      1048648 |      1048648 |      1048648 |      1048648 |xxxxxxxxxxxxx |xxxxxxxxxxxxx |xxxxxxxxxxxxx |      2097224 |      2097224 |      2097224 |      2097224 |xxxxxxxxxxxxx |xxxxxxxxxxxxx |xxxxxxxxxxxxx |      4194376 |      4194376 |      4194376 |      4194376 |
bpred_2lev.ras_hits.PP               xxxxxxxxxxxxx |xxxxxxxxxxxxx |xxxxxxxxxxxxx |         4157 |         4157 |         4157 |         4157 |xxxxxxxxxxxxx |xxxxxxxxxxxxx |xxxxxxxxxxxxx |         8261 |         8261 |         8261 |         8261 |xxxxxxxxxxxxx |xxxxxxxxxxxxx |xxxxxxxxxxxxx |        16453 |        16453 |        16453 |        16453 |xxxxxxxxxxxxx |xxxxxxxxxxxxx |xxxxxxxxxxxxx |        32837 |        32837 |        32837 |        32837 |xxxxxxxxxxxxx |xxxxxxxxxxxxx |xxxxxxxxxxxxx |        65605 |        65605 |        65605 |        65605 |xxxxxxxxxxxxx |xxxxxxxxxxxxx |xxxxxxxxxxxxx |       131141 |       131141 |       131141 |       131141 |xxxxxxxxxxxxx |xxxxxxxxxxxxx |xxxxxxxxxxxxx |       262213 |       262213 |       262213 |       262213 |xxxxxxxxxxxxx |xxxxxxxxxxxxx |xxxxxxxxxxxxx |       524357 |       524357 |       524357 |       524357 |xxxxxxxxxxxxx |xxxxxxxxxxxxx |xxxxxxxxxxxxx |      1048648 |      1048648 |      1048648 |      1048648 |xxxxxxxxxxxxx |xxxxxxxxxxxxx |xxxxxxxxxxxxx |      2097224 |      2097224 |      2097224 |      2097224 |xxxxxxxxxxxxx |xxxxxxxxxxxxx |xxxxxxxxxxxxx |      4194376 |      4194376 |      4194376 |      4194376 |
bpred_2lev.ras_rate.PP               xxxxxxxxxxxxx |xxxxxxxxxxxxx |xxxxxxxxxxxxx |       1.0000 |       1.0000 |       1.0000 |       1.0000 |xxxxxxxxxxxxx |xxxxxxxxxxxxx |xxxxxxxxxxxxx |       0.9999 |       0.9999 |       0.9999 |       0.9999 |xxxxxxxxxxxxx |xxxxxxxxxxxxx |xxxxxxxxxxxxx |       0.9999 |       0.9999 |       0.9999 |       0.9999 |xxxxxxxxxxxxx |xxxxxxxxxxxxx |xxxxxxxxxxxxx |       1.0000 |       1.0000 |       1.0000 |       1.0000 |xxxxxxxxxxxxx |xxxxxxxxxxxxx |xxxxxxxxxxxxx |       1.0000 |       1.0000 |       1.0000 |       1.0000 |xxxxxxxxxxxxx |xxxxxxxxxxxxx |xxxxxxxxxxxxx |       1.0000 |       1.0000 |       1.0000 |       1.0000 |xxxxxxxxxxxxx |xxxxxxxxxxxxx |xxxxxxxxxxxxx |       1.0000 |       1.0000 |       1.0000 |       1.0000 |xxxxxxxxxxxxx |xxxxxxxxxxxxx |xxxxxxxxxxxxx |       1.0000 |       1.0000 |       1.0000 |       1.0000 |xxxxxxxxxxxxx |xxxxxxxxxxxxx |xxxxxxxxxxxxx |       1.0000 |       1.0000 |       1.0000 |       1.0000 |xxxxxxxxxxxxx |xxxxxxxxxxxxx |xxxxxxxxxxxxx |       1.0000 |       1.0000 |       1.0000 |       1.0000 |xxxxxxxxxxxxx |xxxxxxxxxxxxx |xxxxxxxxxxxxx |       1.0000 |       1.0000 |       1.0000 |       1.0000 |

Command list: 
	sslittle-na-sstrix-gcc -Wall -O3 -funroll-loops -finline-functions  -DRANDOM_SIZE=4096 -DOFFSET=2 -DSORT=cache4_heapsort sorts/cache4_heapsort94216674.c simpleMain.c -o cache4_heapsort699294500
	sim-cache -cache:dl1 dl1:512:16:1:l -cache:dl2 dl2:262144:16:1:l -cache:il1 il1:512:16:1:l -cache:il2 dl2 cache4_heapsort699294500
	sim-cache -cache:dl1 dl1:512:16:1:l -cache:dl2 dl2:131072:16:1:l -cache:il1 il1:512:16:1:l -cache:il2 dl2 cache4_heapsort699294500
	sim-cache -cache:dl1 dl1:1:16:512:l -cache:dl2 dl2:1:16:262144:l -cache:il1 il1:1:16:512:l -cache:il2 dl2 cache4_heapsort699294500
	sim-cache -cache:dl1 dl1:1:16:512:l -cache:dl2 dl2:1:16:131072:l -cache:il1 il1:1:16:512:l -cache:il2 dl2 cache4_heapsort699294500
	sim-bpred -bpred bimod -bpred:bimod 512 cache4_heapsort699294500
	sim-bpred -bpred bimod -bpred:bimod 1024 cache4_heapsort699294500
	sim-bpred -bpred bimod -bpred:bimod 2048 cache4_heapsort699294500
	sim-bpred -bpred 2lev -bpred:2lev 1 512 10 1 cache4_heapsort699294500
	sim-bpred -bpred 2lev -bpred:2lev 1 1024 10 1 cache4_heapsort699294500
	sim-bpred -bpred 2lev -bpred:2lev 1 2048 10 1 cache4_heapsort699294500
	sim-bpred -bpred 2lev -bpred:2lev 1 4096 10 1 cache4_heapsort699294500
	sslittle-na-sstrix-gcc -Wall -O3 -funroll-loops -finline-functions  -DRANDOM_SIZE=8192 -DOFFSET=2 -DSORT=cache4_heapsort sorts/cache4_heapsort94216674.c simpleMain.c -o cache4_heapsort699294500
	sim-cache -cache:dl1 dl1:512:16:1:l -cache:dl2 dl2:262144:16:1:l -cache:il1 il1:512:16:1:l -cache:il2 dl2 cache4_heapsort699294500
	sim-cache -cache:dl1 dl1:512:16:1:l -cache:dl2 dl2:131072:16:1:l -cache:il1 il1:512:16:1:l -cache:il2 dl2 cache4_heapsort699294500
	sim-cache -cache:dl1 dl1:1:16:512:l -cache:dl2 dl2:1:16:262144:l -cache:il1 il1:1:16:512:l -cache:il2 dl2 cache4_heapsort699294500
	sim-cache -cache:dl1 dl1:1:16:512:l -cache:dl2 dl2:1:16:131072:l -cache:il1 il1:1:16:512:l -cache:il2 dl2 cache4_heapsort699294500
	sim-bpred -bpred bimod -bpred:bimod 512 cache4_heapsort699294500
	sim-bpred -bpred bimod -bpred:bimod 1024 cache4_heapsort699294500
	sim-bpred -bpred bimod -bpred:bimod 2048 cache4_heapsort699294500
	sim-bpred -bpred 2lev -bpred:2lev 1 512 10 1 cache4_heapsort699294500
	sim-bpred -bpred 2lev -bpred:2lev 1 1024 10 1 cache4_heapsort699294500
	sim-bpred -bpred 2lev -bpred:2lev 1 2048 10 1 cache4_heapsort699294500
	sim-bpred -bpred 2lev -bpred:2lev 1 4096 10 1 cache4_heapsort699294500
	sslittle-na-sstrix-gcc -Wall -O3 -funroll-loops -finline-functions  -DRANDOM_SIZE=16384 -DOFFSET=2 -DSORT=cache4_heapsort sorts/cache4_heapsort94216674.c simpleMain.c -o cache4_heapsort699294500
	sim-cache -cache:dl1 dl1:512:16:1:l -cache:dl2 dl2:262144:16:1:l -cache:il1 il1:512:16:1:l -cache:il2 dl2 cache4_heapsort699294500
	sim-cache -cache:dl1 dl1:512:16:1:l -cache:dl2 dl2:131072:16:1:l -cache:il1 il1:512:16:1:l -cache:il2 dl2 cache4_heapsort699294500
	sim-cache -cache:dl1 dl1:1:16:512:l -cache:dl2 dl2:1:16:262144:l -cache:il1 il1:1:16:512:l -cache:il2 dl2 cache4_heapsort699294500
	sim-cache -cache:dl1 dl1:1:16:512:l -cache:dl2 dl2:1:16:131072:l -cache:il1 il1:1:16:512:l -cache:il2 dl2 cache4_heapsort699294500
	sim-bpred -bpred bimod -bpred:bimod 512 cache4_heapsort699294500
	sim-bpred -bpred bimod -bpred:bimod 1024 cache4_heapsort699294500
	sim-bpred -bpred bimod -bpred:bimod 2048 cache4_heapsort699294500
	sim-bpred -bpred 2lev -bpred:2lev 1 512 10 1 cache4_heapsort699294500
	sim-bpred -bpred 2lev -bpred:2lev 1 1024 10 1 cache4_heapsort699294500
	sim-bpred -bpred 2lev -bpred:2lev 1 2048 10 1 cache4_heapsort699294500
	sim-bpred -bpred 2lev -bpred:2lev 1 4096 10 1 cache4_heapsort699294500
	sslittle-na-sstrix-gcc -Wall -O3 -funroll-loops -finline-functions  -DRANDOM_SIZE=32768 -DOFFSET=2 -DSORT=cache4_heapsort sorts/cache4_heapsort94216674.c simpleMain.c -o cache4_heapsort699294500
	sim-cache -cache:dl1 dl1:512:16:1:l -cache:dl2 dl2:262144:16:1:l -cache:il1 il1:512:16:1:l -cache:il2 dl2 cache4_heapsort699294500
	sim-cache -cache:dl1 dl1:512:16:1:l -cache:dl2 dl2:131072:16:1:l -cache:il1 il1:512:16:1:l -cache:il2 dl2 cache4_heapsort699294500
	sim-cache -cache:dl1 dl1:1:16:512:l -cache:dl2 dl2:1:16:262144:l -cache:il1 il1:1:16:512:l -cache:il2 dl2 cache4_heapsort699294500
	sim-cache -cache:dl1 dl1:1:16:512:l -cache:dl2 dl2:1:16:131072:l -cache:il1 il1:1:16:512:l -cache:il2 dl2 cache4_heapsort699294500
	sim-bpred -bpred bimod -bpred:bimod 512 cache4_heapsort699294500
	sim-bpred -bpred bimod -bpred:bimod 1024 cache4_heapsort699294500
	sim-bpred -bpred bimod -bpred:bimod 2048 cache4_heapsort699294500
	sim-bpred -bpred 2lev -bpred:2lev 1 512 10 1 cache4_heapsort699294500
	sim-bpred -bpred 2lev -bpred:2lev 1 1024 10 1 cache4_heapsort699294500
	sim-bpred -bpred 2lev -bpred:2lev 1 2048 10 1 cache4_heapsort699294500
	sim-bpred -bpred 2lev -bpred:2lev 1 4096 10 1 cache4_heapsort699294500
	sslittle-na-sstrix-gcc -Wall -O3 -funroll-loops -finline-functions  -DRANDOM_SIZE=65536 -DOFFSET=2 -DSORT=cache4_heapsort sorts/cache4_heapsort94216674.c simpleMain.c -o cache4_heapsort699294500
	sim-cache -cache:dl1 dl1:512:16:1:l -cache:dl2 dl2:262144:16:1:l -cache:il1 il1:512:16:1:l -cache:il2 dl2 cache4_heapsort699294500
	sim-cache -cache:dl1 dl1:512:16:1:l -cache:dl2 dl2:131072:16:1:l -cache:il1 il1:512:16:1:l -cache:il2 dl2 cache4_heapsort699294500
	sim-cache -cache:dl1 dl1:1:16:512:l -cache:dl2 dl2:1:16:262144:l -cache:il1 il1:1:16:512:l -cache:il2 dl2 cache4_heapsort699294500
	sim-cache -cache:dl1 dl1:1:16:512:l -cache:dl2 dl2:1:16:131072:l -cache:il1 il1:1:16:512:l -cache:il2 dl2 cache4_heapsort699294500
	sim-bpred -bpred bimod -bpred:bimod 512 cache4_heapsort699294500
	sim-bpred -bpred bimod -bpred:bimod 1024 cache4_heapsort699294500
	sim-bpred -bpred bimod -bpred:bimod 2048 cache4_heapsort699294500
	sim-bpred -bpred 2lev -bpred:2lev 1 512 10 1 cache4_heapsort699294500
	sim-bpred -bpred 2lev -bpred:2lev 1 1024 10 1 cache4_heapsort699294500
	sim-bpred -bpred 2lev -bpred:2lev 1 2048 10 1 cache4_heapsort699294500
	sim-bpred -bpred 2lev -bpred:2lev 1 4096 10 1 cache4_heapsort699294500
	sslittle-na-sstrix-gcc -Wall -O3 -funroll-loops -finline-functions  -DRANDOM_SIZE=131072 -DOFFSET=2 -DSORT=cache4_heapsort sorts/cache4_heapsort94216674.c simpleMain.c -o cache4_heapsort699294500
	sim-cache -cache:dl1 dl1:512:16:1:l -cache:dl2 dl2:262144:16:1:l -cache:il1 il1:512:16:1:l -cache:il2 dl2 cache4_heapsort699294500
	sim-cache -cache:dl1 dl1:512:16:1:l -cache:dl2 dl2:131072:16:1:l -cache:il1 il1:512:16:1:l -cache:il2 dl2 cache4_heapsort699294500
	sim-cache -cache:dl1 dl1:1:16:512:l -cache:dl2 dl2:1:16:262144:l -cache:il1 il1:1:16:512:l -cache:il2 dl2 cache4_heapsort699294500
	sim-cache -cache:dl1 dl1:1:16:512:l -cache:dl2 dl2:1:16:131072:l -cache:il1 il1:1:16:512:l -cache:il2 dl2 cache4_heapsort699294500
	sim-bpred -bpred bimod -bpred:bimod 512 cache4_heapsort699294500
	sim-bpred -bpred bimod -bpred:bimod 1024 cache4_heapsort699294500
	sim-bpred -bpred bimod -bpred:bimod 2048 cache4_heapsort699294500
	sim-bpred -bpred 2lev -bpred:2lev 1 512 10 1 cache4_heapsort699294500
	sim-bpred -bpred 2lev -bpred:2lev 1 1024 10 1 cache4_heapsort699294500
	sim-bpred -bpred 2lev -bpred:2lev 1 2048 10 1 cache4_heapsort699294500
	sim-bpred -bpred 2lev -bpred:2lev 1 4096 10 1 cache4_heapsort699294500
	sslittle-na-sstrix-gcc -Wall -O3 -funroll-loops -finline-functions  -DRANDOM_SIZE=262144 -DOFFSET=2 -DSORT=cache4_heapsort sorts/cache4_heapsort94216674.c simpleMain.c -o cache4_heapsort699294500
	sim-cache -cache:dl1 dl1:512:16:1:l -cache:dl2 dl2:262144:16:1:l -cache:il1 il1:512:16:1:l -cache:il2 dl2 cache4_heapsort699294500
	sim-cache -cache:dl1 dl1:512:16:1:l -cache:dl2 dl2:131072:16:1:l -cache:il1 il1:512:16:1:l -cache:il2 dl2 cache4_heapsort699294500
	sim-cache -cache:dl1 dl1:1:16:512:l -cache:dl2 dl2:1:16:262144:l -cache:il1 il1:1:16:512:l -cache:il2 dl2 cache4_heapsort699294500
	sim-cache -cache:dl1 dl1:1:16:512:l -cache:dl2 dl2:1:16:131072:l -cache:il1 il1:1:16:512:l -cache:il2 dl2 cache4_heapsort699294500
	sim-bpred -bpred bimod -bpred:bimod 512 cache4_heapsort699294500
	sim-bpred -bpred bimod -bpred:bimod 1024 cache4_heapsort699294500
	sim-bpred -bpred bimod -bpred:bimod 2048 cache4_heapsort699294500
	sim-bpred -bpred 2lev -bpred:2lev 1 512 10 1 cache4_heapsort699294500
	sim-bpred -bpred 2lev -bpred:2lev 1 1024 10 1 cache4_heapsort699294500
	sim-bpred -bpred 2lev -bpred:2lev 1 2048 10 1 cache4_heapsort699294500
	sim-bpred -bpred 2lev -bpred:2lev 1 4096 10 1 cache4_heapsort699294500
	sslittle-na-sstrix-gcc -Wall -O3 -funroll-loops -finline-functions  -DRANDOM_SIZE=524288 -DOFFSET=2 -DSORT=cache4_heapsort sorts/cache4_heapsort94216674.c simpleMain.c -o cache4_heapsort699294500
	sim-cache -cache:dl1 dl1:512:16:1:l -cache:dl2 dl2:262144:16:1:l -cache:il1 il1:512:16:1:l -cache:il2 dl2 cache4_heapsort699294500
	sim-cache -cache:dl1 dl1:512:16:1:l -cache:dl2 dl2:131072:16:1:l -cache:il1 il1:512:16:1:l -cache:il2 dl2 cache4_heapsort699294500
	sim-cache -cache:dl1 dl1:1:16:512:l -cache:dl2 dl2:1:16:262144:l -cache:il1 il1:1:16:512:l -cache:il2 dl2 cache4_heapsort699294500
	sim-cache -cache:dl1 dl1:1:16:512:l -cache:dl2 dl2:1:16:131072:l -cache:il1 il1:1:16:512:l -cache:il2 dl2 cache4_heapsort699294500
	sim-bpred -bpred bimod -bpred:bimod 512 cache4_heapsort699294500
	sim-bpred -bpred bimod -bpred:bimod 1024 cache4_heapsort699294500
	sim-bpred -bpred bimod -bpred:bimod 2048 cache4_heapsort699294500
	sim-bpred -bpred 2lev -bpred:2lev 1 512 10 1 cache4_heapsort699294500
	sim-bpred -bpred 2lev -bpred:2lev 1 1024 10 1 cache4_heapsort699294500
	sim-bpred -bpred 2lev -bpred:2lev 1 2048 10 1 cache4_heapsort699294500
	sim-bpred -bpred 2lev -bpred:2lev 1 4096 10 1 cache4_heapsort699294500
	sslittle-na-sstrix-gcc -Wall -O3 -funroll-loops -finline-functions  -DRANDOM_SIZE=1048576 -DOFFSET=2 -DSORT=cache4_heapsort sorts/cache4_heapsort94216674.c simpleMain.c -o cache4_heapsort699294500
	sim-cache -cache:dl1 dl1:512:16:1:l -cache:dl2 dl2:262144:16:1:l -cache:il1 il1:512:16:1:l -cache:il2 dl2 cache4_heapsort699294500
	sim-cache -cache:dl1 dl1:512:16:1:l -cache:dl2 dl2:131072:16:1:l -cache:il1 il1:512:16:1:l -cache:il2 dl2 cache4_heapsort699294500
	sim-cache -cache:dl1 dl1:1:16:512:l -cache:dl2 dl2:1:16:262144:l -cache:il1 il1:1:16:512:l -cache:il2 dl2 cache4_heapsort699294500
	sim-cache -cache:dl1 dl1:1:16:512:l -cache:dl2 dl2:1:16:131072:l -cache:il1 il1:1:16:512:l -cache:il2 dl2 cache4_heapsort699294500
	sim-bpred -bpred bimod -bpred:bimod 512 cache4_heapsort699294500
	sim-bpred -bpred bimod -bpred:bimod 1024 cache4_heapsort699294500
	sim-bpred -bpred bimod -bpred:bimod 2048 cache4_heapsort699294500
	sim-bpred -bpred 2lev -bpred:2lev 1 512 10 1 cache4_heapsort699294500
	sim-bpred -bpred 2lev -bpred:2lev 1 1024 10 1 cache4_heapsort699294500
	sim-bpred -bpred 2lev -bpred:2lev 1 2048 10 1 cache4_heapsort699294500
	sim-bpred -bpred 2lev -bpred:2lev 1 4096 10 1 cache4_heapsort699294500
	sslittle-na-sstrix-gcc -Wall -O3 -funroll-loops -finline-functions  -DRANDOM_SIZE=2097152 -DOFFSET=2 -DSORT=cache4_heapsort sorts/cache4_heapsort94216674.c simpleMain.c -o cache4_heapsort699294500
	sim-cache -cache:dl1 dl1:512:16:1:l -cache:dl2 dl2:262144:16:1:l -cache:il1 il1:512:16:1:l -cache:il2 dl2 cache4_heapsort699294500
	sim-cache -cache:dl1 dl1:512:16:1:l -cache:dl2 dl2:131072:16:1:l -cache:il1 il1:512:16:1:l -cache:il2 dl2 cache4_heapsort699294500
	sim-cache -cache:dl1 dl1:1:16:512:l -cache:dl2 dl2:1:16:262144:l -cache:il1 il1:1:16:512:l -cache:il2 dl2 cache4_heapsort699294500
	sim-cache -cache:dl1 dl1:1:16:512:l -cache:dl2 dl2:1:16:131072:l -cache:il1 il1:1:16:512:l -cache:il2 dl2 cache4_heapsort699294500
	sim-bpred -bpred bimod -bpred:bimod 512 cache4_heapsort699294500
	sim-bpred -bpred bimod -bpred:bimod 1024 cache4_heapsort699294500
	sim-bpred -bpred bimod -bpred:bimod 2048 cache4_heapsort699294500
	sim-bpred -bpred 2lev -bpred:2lev 1 512 10 1 cache4_heapsort699294500
	sim-bpred -bpred 2lev -bpred:2lev 1 1024 10 1 cache4_heapsort699294500
	sim-bpred -bpred 2lev -bpred:2lev 1 2048 10 1 cache4_heapsort699294500
	sim-bpred -bpred 2lev -bpred:2lev 1 4096 10 1 cache4_heapsort699294500
	sslittle-na-sstrix-gcc -Wall -O3 -funroll-loops -finline-functions  -DRANDOM_SIZE=4194304 -DOFFSET=2 -DSORT=cache4_heapsort sorts/cache4_heapsort94216674.c simpleMain.c -o cache4_heapsort699294500
	sim-cache -cache:dl1 dl1:512:16:1:l -cache:dl2 dl2:262144:16:1:l -cache:il1 il1:512:16:1:l -cache:il2 dl2 cache4_heapsort699294500
	sim-cache -cache:dl1 dl1:512:16:1:l -cache:dl2 dl2:131072:16:1:l -cache:il1 il1:512:16:1:l -cache:il2 dl2 cache4_heapsort699294500
	sim-cache -cache:dl1 dl1:1:16:512:l -cache:dl2 dl2:1:16:262144:l -cache:il1 il1:1:16:512:l -cache:il2 dl2 cache4_heapsort699294500
	sim-cache -cache:dl1 dl1:1:16:512:l -cache:dl2 dl2:1:16:131072:l -cache:il1 il1:1:16:512:l -cache:il2 dl2 cache4_heapsort699294500
	sim-bpred -bpred bimod -bpred:bimod 512 cache4_heapsort699294500
	sim-bpred -bpred bimod -bpred:bimod 1024 cache4_heapsort699294500
	sim-bpred -bpred bimod -bpred:bimod 2048 cache4_heapsort699294500
	sim-bpred -bpred 2lev -bpred:2lev 1 512 10 1 cache4_heapsort699294500
	sim-bpred -bpred 2lev -bpred:2lev 1 1024 10 1 cache4_heapsort699294500
	sim-bpred -bpred 2lev -bpred:2lev 1 2048 10 1 cache4_heapsort699294500
	sim-bpred -bpred 2lev -bpred:2lev 1 4096 10 1 cache4_heapsort699294500
