Tue Jul 12 13:25:38 2005
Run as: "./do_simple -c random.org5 -o 5 memory_tuned_quicksort"
-------------------------------------------------------------------------------------------------
sim-cache                                     4096 |         4096 |         4096 |         4096 |         8192 |         8192 |         8192 |         8192 |        16384 |        16384 |        16384 |        16384 |        32768 |        32768 |        32768 |        32768 |        65536 |        65536 |        65536 |        65536 |       131072 |       131072 |       131072 |       131072 |       262144 |       262144 |       262144 |       262144 |       524288 |       524288 |       524288 |       524288 |      1048576 |      1048576 |      1048576 |      1048576 |      2097152 |      2097152 |      2097152 |      2097152 |      4194304 |      4194304 |      4194304 |      4194304 |
-cache:dl1 dl1:256:32:1:l -cache:dl2 dl2:131072:32:1:l -cache:il1 il1:256:32:1:l -cache:il2 dl2
-cache:dl1 dl1:256:32:1:l -cache:dl2 dl2:65536:32:1:l -cache:il1 il1:256:32:1:l -cache:il2 dl2
-cache:dl1 dl1:1:32:256:l -cache:dl2 dl2:1:32:131072:l -cache:il1 il1:1:32:256:l -cache:il2 dl2
-cache:dl1 dl1:1:32:256:l -cache:dl2 dl2:1:32:65536:l -cache:il1 il1:1:32:256:l -cache:il2 dl2
-------------------------------------------------------------------------------------------------
sim_num_insn                                471334 |       471334 |       471334 |       471334 |      1004149 |      1004149 |      1004149 |      1004149 |      2152052 |      2152052 |      2152052 |      2152052 |      4651746 |      4651746 |      4651746 |      4651746 |      9794434 |      9794434 |      9794434 |      9794434 |     20806601 |     20806601 |     20806601 |     20806601 |     43783511 |     43783511 |     43783511 |     43783511 |     91484558 |     91484558 |     91484558 |     91484558 |    194627398 |    194627398 |    194627398 |    194627398 |    409587719 |    409587719 |    409587719 |    409587719 |    856882661 |    856882661 |    856882661 |    856882661 |
sim_num_refs                                123639 |       123639 |       123639 |       123639 |       260023 |       260023 |       260023 |       260023 |       552411 |       552411 |       552411 |       552411 |      1176156 |      1176156 |      1176156 |      1176156 |      2475189 |      2475189 |      2475189 |      2475189 |      5225295 |      5225295 |      5225295 |      5225295 |     10971133 |     10971133 |     10971133 |     10971133 |     22928573 |     22928573 |     22928573 |     22928573 |     48358322 |     48358322 |     48358322 |     48358322 |    101414574 |    101414574 |    101414574 |    101414574 |    211486664 |    211486664 |    211486664 |    211486664 |
sim_elapsed_time                                 1 |            1 |            7 |            4 |            1 |            1 |           10 |            5 |            1 |            1 |           16 |            8 |            1 |            1 |           28 |           14 |            3 |            3 |           50 |           25 |            5 |            5 |           90 |           45 |           11 |           12 |          167 |           78 |           25 |           24 |          289 |          111 |           53 |           52 |          398 |          140 |          112 |          112 |          468 |          205 |          234 |          234 |          599 |          337 |
sim_inst_rate                          471334.0000 |  471334.0000 |   67333.4286 |  117833.5000 | 1004149.0000 | 1004149.0000 |  100414.9000 |  200829.8000 | 2152052.0000 | 2152052.0000 |  134503.2500 |  269006.5000 | 4651746.0000 | 4651746.0000 |  166133.7857 |  332267.5714 | 3264811.3333 | 3264811.3333 |  195888.6800 |  391777.3600 | 4161320.2000 | 4161320.2000 |  231184.4556 |  462368.9111 | 3980319.1818 | 3648625.9167 |  262176.7126 |  561327.0641 | 3659382.3200 | 3811856.5833 |  316555.5640 |  824185.2072 | 3672215.0566 | 3742834.5769 |  489013.5628 | 1390195.7000 | 3657033.2054 | 3657033.2054 |  875187.4338 | 1997988.8732 | 3661891.7137 | 3661891.7137 | 1430521.9716 | 2542678.5193 |
il1.accesses                                471334 |       471334 |       471334 |       471334 |      1004149 |      1004149 |      1004149 |      1004149 |      2152052 |      2152052 |      2152052 |      2152052 |      4651746 |      4651746 |      4651746 |      4651746 |      9794434 |      9794434 |      9794434 |      9794434 |     20806601 |     20806601 |     20806601 |     20806601 |     43783511 |     43783511 |     43783511 |     43783511 |     91484558 |     91484558 |     91484558 |     91484558 |    194627398 |    194627398 |    194627398 |    194627398 |    409587719 |    409587719 |    409587719 |    409587719 |    856882661 |    856882661 |    856882661 |    856882661 |
il1.hits                                    470874 |       470874 |       470903 |       470903 |      1003690 |      1003690 |      1003719 |      1003719 |      2151588 |      2151588 |      2151626 |      2151626 |      4651285 |      4651285 |      4651312 |      4651312 |      9793976 |      9793976 |      9794003 |      9794003 |     20806141 |     20806141 |     20806168 |     20806168 |     43783054 |     43783054 |     43783081 |     43783081 |     91484099 |     91484099 |     91484126 |     91484126 |    194626941 |    194626941 |    194626968 |    194626968 |    409587260 |    409587260 |    409587287 |    409587287 |    856882204 |    856882204 |    856882231 |    856882231 |
il1.misses                                     460 |          460 |          431 |          431 |          459 |          459 |          430 |          430 |          464 |          464 |          426 |          426 |          461 |          461 |          434 |          434 |          458 |          458 |          431 |          431 |          460 |          460 |          433 |          433 |          457 |          457 |          430 |          430 |          459 |          459 |          432 |          432 |          457 |          457 |          430 |          430 |          459 |          459 |          432 |          432 |          457 |          457 |          430 |          430 |
il1.replacements                               221 |          221 |          175 |          175 |          220 |          220 |          174 |          174 |          231 |          231 |          170 |          170 |          222 |          222 |          178 |          178 |          219 |          219 |          175 |          175 |          222 |          222 |          177 |          177 |          219 |          219 |          174 |          174 |          221 |          221 |          176 |          176 |          219 |          219 |          174 |          174 |          221 |          221 |          176 |          176 |          219 |          219 |          174 |          174 |
il1.writebacks                                   0 |            0 |            0 |            0 |            0 |            0 |            0 |            0 |            0 |            0 |            0 |            0 |            0 |            0 |            0 |            0 |            0 |            0 |            0 |            0 |            0 |            0 |            0 |            0 |            0 |            0 |            0 |            0 |            0 |            0 |            0 |            0 |            0 |            0 |            0 |            0 |            0 |            0 |            0 |            0 |            0 |            0 |            0 |            0 |
il1.invalidations                                0 |            0 |            0 |            0 |            0 |            0 |            0 |            0 |            0 |            0 |            0 |            0 |            0 |            0 |            0 |            0 |            0 |            0 |            0 |            0 |            0 |            0 |            0 |            0 |            0 |            0 |            0 |            0 |            0 |            0 |            0 |            0 |            0 |            0 |            0 |            0 |            0 |            0 |            0 |            0 |            0 |            0 |            0 |            0 |
il1.miss_rate                               0.0010 |       0.0010 |       0.0009 |       0.0009 |       0.0005 |       0.0005 |       0.0004 |       0.0004 |       0.0002 |       0.0002 |       0.0002 |       0.0002 |       0.0001 |       0.0001 |       0.0001 |       0.0001 |       0.0000 |       0.0000 |       0.0000 |       0.0000 |       0.0000 |       0.0000 |       0.0000 |       0.0000 |       0.0000 |       0.0000 |       0.0000 |       0.0000 |       0.0000 |       0.0000 |       0.0000 |       0.0000 |       0.0000 |       0.0000 |       0.0000 |       0.0000 |       0.0000 |       0.0000 |       0.0000 |       0.0000 |       0.0000 |       0.0000 |       0.0000 |       0.0000 |
il1.repl_rate                               0.0005 |       0.0005 |       0.0004 |       0.0004 |       0.0002 |       0.0002 |       0.0002 |       0.0002 |       0.0001 |       0.0001 |       0.0001 |       0.0001 |       0.0000 |       0.0000 |       0.0000 |       0.0000 |       0.0000 |       0.0000 |       0.0000 |       0.0000 |       0.0000 |       0.0000 |       0.0000 |       0.0000 |       0.0000 |       0.0000 |       0.0000 |       0.0000 |       0.0000 |       0.0000 |       0.0000 |       0.0000 |       0.0000 |       0.0000 |       0.0000 |       0.0000 |       0.0000 |       0.0000 |       0.0000 |       0.0000 |       0.0000 |       0.0000 |       0.0000 |       0.0000 |
il1.wb_rate                                 0.0000 |       0.0000 |       0.0000 |       0.0000 |       0.0000 |       0.0000 |       0.0000 |       0.0000 |       0.0000 |       0.0000 |       0.0000 |       0.0000 |       0.0000 |       0.0000 |       0.0000 |       0.0000 |       0.0000 |       0.0000 |       0.0000 |       0.0000 |       0.0000 |       0.0000 |       0.0000 |       0.0000 |       0.0000 |       0.0000 |       0.0000 |       0.0000 |       0.0000 |       0.0000 |       0.0000 |       0.0000 |       0.0000 |       0.0000 |       0.0000 |       0.0000 |       0.0000 |       0.0000 |       0.0000 |       0.0000 |       0.0000 |       0.0000 |       0.0000 |       0.0000 |
il1.inv_rate                                0.0000 |       0.0000 |       0.0000 |       0.0000 |       0.0000 |       0.0000 |       0.0000 |       0.0000 |       0.0000 |       0.0000 |       0.0000 |       0.0000 |       0.0000 |       0.0000 |       0.0000 |       0.0000 |       0.0000 |       0.0000 |       0.0000 |       0.0000 |       0.0000 |       0.0000 |       0.0000 |       0.0000 |       0.0000 |       0.0000 |       0.0000 |       0.0000 |       0.0000 |       0.0000 |       0.0000 |       0.0000 |       0.0000 |       0.0000 |       0.0000 |       0.0000 |       0.0000 |       0.0000 |       0.0000 |       0.0000 |       0.0000 |       0.0000 |       0.0000 |       0.0000 |
dl1.accesses                                140105 |       140105 |       140105 |       140105 |       292873 |       292873 |       292873 |       292873 |       618029 |       618029 |       618029 |       618029 |      1307310 |      1307310 |      1307310 |      1307310 |      2737415 |      2737415 |      2737415 |      2737415 |      5749665 |      5749665 |      5749665 |      5749665 |     12019791 |     12019791 |     12019791 |     12019791 |     25025807 |     25025807 |     25025807 |     25025807 |     52552708 |     52552708 |     52552708 |     52552708 |    109803264 |    109803264 |    109803264 |    109803264 |    228263962 |    228263962 |    228263962 |    228263962 |
dl1.hits                                    137631 |       137631 |       137559 |       137559 |       287908 |       287908 |       287980 |       287980 |       605222 |       605222 |       605280 |       605280 |      1277864 |      1277864 |      1277801 |      1277801 |      2670510 |      2670510 |      2670870 |      2670870 |      5597266 |      5597266 |      5597914 |      5597914 |     11679731 |     11679731 |     11682074 |     11682074 |     24290761 |     24290761 |     24297572 |     24297572 |     50865937 |     50865937 |     50884133 |     50884133 |    106094103 |    106094103 |    106140673 |    106140673 |    220258008 |    220258008 |    220365992 |    220365992 |
dl1.misses                                    2474 |         2474 |         2546 |         2546 |         4965 |         4965 |         4893 |         4893 |        12807 |        12807 |        12749 |        12749 |        29446 |        29446 |        29509 |        29509 |        66905 |        66905 |        66545 |        66545 |       152399 |       152399 |       151751 |       151751 |       340060 |       340060 |       337717 |       337717 |       735046 |       735046 |       728235 |       728235 |      1686771 |      1686771 |      1668575 |      1668575 |      3709161 |      3709161 |      3662591 |      3662591 |      8005954 |      8005954 |      7897970 |      7897970 |
dl1.replacements                              2218 |         2218 |         2290 |         2290 |         4709 |         4709 |         4637 |         4637 |        12551 |        12551 |        12493 |        12493 |        29190 |        29190 |        29253 |        29253 |        66649 |        66649 |        66289 |        66289 |       152143 |       152143 |       151495 |       151495 |       339804 |       339804 |       337461 |       337461 |       734790 |       734790 |       727979 |       727979 |      1686515 |      1686515 |      1668319 |      1668319 |      3708905 |      3708905 |      3662335 |      3662335 |      8005698 |      8005698 |      7897714 |      7897714 |
dl1.writebacks                                2005 |         2005 |         2072 |         2072 |         4513 |         4513 |         4496 |         4496 |        11580 |        11580 |        11655 |        11655 |        26362 |        26362 |        26627 |        26627 |        61355 |        61355 |        61592 |        61592 |       141446 |       141446 |       142226 |       142226 |       314621 |       314621 |       315510 |       315510 |       689498 |       689498 |       690045 |       690045 |      1559610 |      1559610 |      1558711 |      1558711 |      3381771 |      3381771 |      3375341 |      3375341 |      7339109 |      7339109 |      7320086 |      7320086 |
dl1.invalidations                                0 |            0 |            0 |            0 |            0 |            0 |            0 |            0 |            0 |            0 |            0 |            0 |            0 |            0 |            0 |            0 |            0 |            0 |            0 |            0 |            0 |            0 |            0 |            0 |            0 |            0 |            0 |            0 |            0 |            0 |            0 |            0 |            0 |            0 |            0 |            0 |            0 |            0 |            0 |            0 |            0 |            0 |            0 |            0 |
dl1.miss_rate                               0.0177 |       0.0177 |       0.0182 |       0.0182 |       0.0170 |       0.0170 |       0.0167 |       0.0167 |       0.0207 |       0.0207 |       0.0206 |       0.0206 |       0.0225 |       0.0225 |       0.0226 |       0.0226 |       0.0244 |       0.0244 |       0.0243 |       0.0243 |       0.0265 |       0.0265 |       0.0264 |       0.0264 |       0.0283 |       0.0283 |       0.0281 |       0.0281 |       0.0294 |       0.0294 |       0.0291 |       0.0291 |       0.0321 |       0.0321 |       0.0318 |       0.0318 |       0.0338 |       0.0338 |       0.0334 |       0.0334 |       0.0351 |       0.0351 |       0.0346 |       0.0346 |
dl1.repl_rate                               0.0158 |       0.0158 |       0.0163 |       0.0163 |       0.0161 |       0.0161 |       0.0158 |       0.0158 |       0.0203 |       0.0203 |       0.0202 |       0.0202 |       0.0223 |       0.0223 |       0.0224 |       0.0224 |       0.0243 |       0.0243 |       0.0242 |       0.0242 |       0.0265 |       0.0265 |       0.0263 |       0.0263 |       0.0283 |       0.0283 |       0.0281 |       0.0281 |       0.0294 |       0.0294 |       0.0291 |       0.0291 |       0.0321 |       0.0321 |       0.0317 |       0.0317 |       0.0338 |       0.0338 |       0.0334 |       0.0334 |       0.0351 |       0.0351 |       0.0346 |       0.0346 |
dl1.wb_rate                                 0.0143 |       0.0143 |       0.0148 |       0.0148 |       0.0154 |       0.0154 |       0.0154 |       0.0154 |       0.0187 |       0.0187 |       0.0189 |       0.0189 |       0.0202 |       0.0202 |       0.0204 |       0.0204 |       0.0224 |       0.0224 |       0.0225 |       0.0225 |       0.0246 |       0.0246 |       0.0247 |       0.0247 |       0.0262 |       0.0262 |       0.0262 |       0.0262 |       0.0276 |       0.0276 |       0.0276 |       0.0276 |       0.0297 |       0.0297 |       0.0297 |       0.0297 |       0.0308 |       0.0308 |       0.0307 |       0.0307 |       0.0322 |       0.0322 |       0.0321 |       0.0321 |
dl1.inv_rate                                0.0000 |       0.0000 |       0.0000 |       0.0000 |       0.0000 |       0.0000 |       0.0000 |       0.0000 |       0.0000 |       0.0000 |       0.0000 |       0.0000 |       0.0000 |       0.0000 |       0.0000 |       0.0000 |       0.0000 |       0.0000 |       0.0000 |       0.0000 |       0.0000 |       0.0000 |       0.0000 |       0.0000 |       0.0000 |       0.0000 |       0.0000 |       0.0000 |       0.0000 |       0.0000 |       0.0000 |       0.0000 |       0.0000 |       0.0000 |       0.0000 |       0.0000 |       0.0000 |       0.0000 |       0.0000 |       0.0000 |       0.0000 |       0.0000 |       0.0000 |       0.0000 |
dl2.accesses                                  4939 |         4939 |         5049 |         5049 |         9937 |         9937 |         9819 |         9819 |        24851 |        24851 |        24830 |        24830 |        56269 |        56269 |        56570 |        56570 |       128718 |       128718 |       128568 |       128568 |       294305 |       294305 |       294410 |       294410 |       655138 |       655138 |       653657 |       653657 |      1425003 |      1425003 |      1418712 |      1418712 |      3246838 |      3246838 |      3227716 |      3227716 |      7091391 |      7091391 |      7038364 |      7038364 |     15345520 |     15345520 |     15218486 |     15218486 |
dl2.hits                                      3560 |         3560 |         3685 |         3685 |         8049 |         8049 |         7944 |         7944 |        21947 |        21947 |        21943 |        21943 |        51314 |        51314 |        51627 |        51627 |       119669 |       119669 |       119531 |       119531 |       277062 |       277062 |       277179 |       277179 |       621514 |       621514 |       620045 |       620045 |      1358609 |      1357947 |      1352330 |      1300299 |      3114210 |      2891409 |      3029950 |      2834637 |      6366141 |      6058710 |      6259759 |      5941028 |     13347616 |     12613519 |     13072646 |     12286020 |
dl2.misses                                    1379 |         1379 |         1364 |         1364 |         1888 |         1888 |         1875 |         1875 |         2904 |         2904 |         2887 |         2887 |         4955 |         4955 |         4943 |         4943 |         9049 |         9049 |         9037 |         9037 |        17243 |        17243 |        17231 |        17231 |        33624 |        33624 |        33612 |        33612 |        66394 |        67056 |        66382 |       118413 |       132628 |       355429 |       197766 |       393079 |       725250 |      1032681 |       778605 |      1097336 |      1997904 |      2732001 |      2145840 |      2932466 |
dl2.replacements                               147 |          147 |            0 |            0 |          146 |          146 |            0 |            0 |          150 |          150 |            0 |            0 |          145 |          145 |            0 |            0 |          145 |          145 |            0 |            0 |          145 |          145 |            0 |            0 |          145 |          145 |            0 |            0 |          145 |         1520 |            0 |        52877 |         1556 |       289893 |        66694 |       327543 |       594178 |       967145 |       647533 |      1031800 |      1866832 |      2666465 |      2014768 |      2866930 |
dl2.writebacks                                  82 |           82 |            0 |            0 |           83 |           83 |            0 |            0 |           85 |           85 |            0 |            0 |           84 |           84 |            0 |            0 |           84 |           84 |            0 |            0 |           84 |           84 |            0 |            0 |           84 |           84 |            0 |            0 |           84 |         1267 |            0 |        52539 |         1298 |       285542 |        66470 |       322300 |       584971 |       940059 |       638169 |      1001818 |      1837185 |      2537805 |      1978695 |      2710464 |
dl2.invalidations                                0 |            0 |            0 |            0 |            0 |            0 |            0 |            0 |            0 |            0 |            0 |            0 |            0 |            0 |            0 |            0 |            0 |            0 |            0 |            0 |            0 |            0 |            0 |            0 |            0 |            0 |            0 |            0 |            0 |            0 |            0 |            0 |            0 |            0 |            0 |            0 |            0 |            0 |            0 |            0 |            0 |            0 |            0 |            0 |
dl2.miss_rate                               0.2792 |       0.2792 |       0.2702 |       0.2702 |       0.1900 |       0.1900 |       0.1910 |       0.1910 |       0.1169 |       0.1169 |       0.1163 |       0.1163 |       0.0881 |       0.0881 |       0.0874 |       0.0874 |       0.0703 |       0.0703 |       0.0703 |       0.0703 |       0.0586 |       0.0586 |       0.0585 |       0.0585 |       0.0513 |       0.0513 |       0.0514 |       0.0514 |       0.0466 |       0.0471 |       0.0468 |       0.0835 |       0.0408 |       0.1095 |       0.0613 |       0.1218 |       0.1023 |       0.1456 |       0.1106 |       0.1559 |       0.1302 |       0.1780 |       0.1410 |       0.1927 |
dl2.repl_rate                               0.0298 |       0.0298 |       0.0000 |       0.0000 |       0.0147 |       0.0147 |       0.0000 |       0.0000 |       0.0060 |       0.0060 |       0.0000 |       0.0000 |       0.0026 |       0.0026 |       0.0000 |       0.0000 |       0.0011 |       0.0011 |       0.0000 |       0.0000 |       0.0005 |       0.0005 |       0.0000 |       0.0000 |       0.0002 |       0.0002 |       0.0000 |       0.0000 |       0.0001 |       0.0011 |       0.0000 |       0.0373 |       0.0005 |       0.0893 |       0.0207 |       0.1015 |       0.0838 |       0.1364 |       0.0920 |       0.1466 |       0.1217 |       0.1738 |       0.1324 |       0.1884 |
dl2.wb_rate                                 0.0166 |       0.0166 |       0.0000 |       0.0000 |       0.0084 |       0.0084 |       0.0000 |       0.0000 |       0.0034 |       0.0034 |       0.0000 |       0.0000 |       0.0015 |       0.0015 |       0.0000 |       0.0000 |       0.0007 |       0.0007 |       0.0000 |       0.0000 |       0.0003 |       0.0003 |       0.0000 |       0.0000 |       0.0001 |       0.0001 |       0.0000 |       0.0000 |       0.0001 |       0.0009 |       0.0000 |       0.0370 |       0.0004 |       0.0879 |       0.0206 |       0.0999 |       0.0825 |       0.1326 |       0.0907 |       0.1423 |       0.1197 |       0.1654 |       0.1300 |       0.1781 |
dl2.inv_rate                                0.0000 |       0.0000 |       0.0000 |       0.0000 |       0.0000 |       0.0000 |       0.0000 |       0.0000 |       0.0000 |       0.0000 |       0.0000 |       0.0000 |       0.0000 |       0.0000 |       0.0000 |       0.0000 |       0.0000 |       0.0000 |       0.0000 |       0.0000 |       0.0000 |       0.0000 |       0.0000 |       0.0000 |       0.0000 |       0.0000 |       0.0000 |       0.0000 |       0.0000 |       0.0000 |       0.0000 |       0.0000 |       0.0000 |       0.0000 |       0.0000 |       0.0000 |       0.0000 |       0.0000 |       0.0000 |       0.0000 |       0.0000 |       0.0000 |       0.0000 |       0.0000 |
itlb.accesses                               471334 |       471334 |       471334 |       471334 |      1004149 |      1004149 |      1004149 |      1004149 |      2152052 |      2152052 |      2152052 |      2152052 |      4651746 |      4651746 |      4651746 |      4651746 |      9794434 |      9794434 |      9794434 |      9794434 |     20806601 |     20806601 |     20806601 |     20806601 |     43783511 |     43783511 |     43783511 |     43783511 |     91484558 |     91484558 |     91484558 |     91484558 |    194627398 |    194627398 |    194627398 |    194627398 |    409587719 |    409587719 |    409587719 |    409587719 |    856882661 |    856882661 |    856882661 |    856882661 |
itlb.hits                                   471323 |       471323 |       471323 |       471323 |      1004138 |      1004138 |      1004138 |      1004138 |      2152041 |      2152041 |      2152041 |      2152041 |      4651736 |      4651736 |      4651736 |      4651736 |      9794424 |      9794424 |      9794424 |      9794424 |     20806591 |     20806591 |     20806591 |     20806591 |     43783501 |     43783501 |     43783501 |     43783501 |     91484548 |     91484548 |     91484548 |     91484548 |    194627388 |    194627388 |    194627388 |    194627388 |    409587709 |    409587709 |    409587709 |    409587709 |    856882651 |    856882651 |    856882651 |    856882651 |
itlb.misses                                     11 |           11 |           11 |           11 |           11 |           11 |           11 |           11 |           11 |           11 |           11 |           11 |           10 |           10 |           10 |           10 |           10 |           10 |           10 |           10 |           10 |           10 |           10 |           10 |           10 |           10 |           10 |           10 |           10 |           10 |           10 |           10 |           10 |           10 |           10 |           10 |           10 |           10 |           10 |           10 |           10 |           10 |           10 |           10 |
itlb.replacements                                0 |            0 |            0 |            0 |            0 |            0 |            0 |            0 |            0 |            0 |            0 |            0 |            0 |            0 |            0 |            0 |            0 |            0 |            0 |            0 |            0 |            0 |            0 |            0 |            0 |            0 |            0 |            0 |            0 |            0 |            0 |            0 |            0 |            0 |            0 |            0 |            0 |            0 |            0 |            0 |            0 |            0 |            0 |            0 |
itlb.writebacks                                  0 |            0 |            0 |            0 |            0 |            0 |            0 |            0 |            0 |            0 |            0 |            0 |            0 |            0 |            0 |            0 |            0 |            0 |            0 |            0 |            0 |            0 |            0 |            0 |            0 |            0 |            0 |            0 |            0 |            0 |            0 |            0 |            0 |            0 |            0 |            0 |            0 |            0 |            0 |            0 |            0 |            0 |            0 |            0 |
itlb.invalidations                               0 |            0 |            0 |            0 |            0 |            0 |            0 |            0 |            0 |            0 |            0 |            0 |            0 |            0 |            0 |            0 |            0 |            0 |            0 |            0 |            0 |            0 |            0 |            0 |            0 |            0 |            0 |            0 |            0 |            0 |            0 |            0 |            0 |            0 |            0 |            0 |            0 |            0 |            0 |            0 |            0 |            0 |            0 |            0 |
itlb.miss_rate                              0.0000 |       0.0000 |       0.0000 |       0.0000 |       0.0000 |       0.0000 |       0.0000 |       0.0000 |       0.0000 |       0.0000 |       0.0000 |       0.0000 |       0.0000 |       0.0000 |       0.0000 |       0.0000 |       0.0000 |       0.0000 |       0.0000 |       0.0000 |       0.0000 |       0.0000 |       0.0000 |       0.0000 |       0.0000 |       0.0000 |       0.0000 |       0.0000 |       0.0000 |       0.0000 |       0.0000 |       0.0000 |       0.0000 |       0.0000 |       0.0000 |       0.0000 |       0.0000 |       0.0000 |       0.0000 |       0.0000 |       0.0000 |       0.0000 |       0.0000 |       0.0000 |
itlb.repl_rate                              0.0000 |       0.0000 |       0.0000 |       0.0000 |       0.0000 |       0.0000 |       0.0000 |       0.0000 |       0.0000 |       0.0000 |       0.0000 |       0.0000 |       0.0000 |       0.0000 |       0.0000 |       0.0000 |       0.0000 |       0.0000 |       0.0000 |       0.0000 |       0.0000 |       0.0000 |       0.0000 |       0.0000 |       0.0000 |       0.0000 |       0.0000 |       0.0000 |       0.0000 |       0.0000 |       0.0000 |       0.0000 |       0.0000 |       0.0000 |       0.0000 |       0.0000 |       0.0000 |       0.0000 |       0.0000 |       0.0000 |       0.0000 |       0.0000 |       0.0000 |       0.0000 |
itlb.wb_rate                                0.0000 |       0.0000 |       0.0000 |       0.0000 |       0.0000 |       0.0000 |       0.0000 |       0.0000 |       0.0000 |       0.0000 |       0.0000 |       0.0000 |       0.0000 |       0.0000 |       0.0000 |       0.0000 |       0.0000 |       0.0000 |       0.0000 |       0.0000 |       0.0000 |       0.0000 |       0.0000 |       0.0000 |       0.0000 |       0.0000 |       0.0000 |       0.0000 |       0.0000 |       0.0000 |       0.0000 |       0.0000 |       0.0000 |       0.0000 |       0.0000 |       0.0000 |       0.0000 |       0.0000 |       0.0000 |       0.0000 |       0.0000 |       0.0000 |       0.0000 |       0.0000 |
itlb.inv_rate                               0.0000 |       0.0000 |       0.0000 |       0.0000 |       0.0000 |       0.0000 |       0.0000 |       0.0000 |       0.0000 |       0.0000 |       0.0000 |       0.0000 |       0.0000 |       0.0000 |       0.0000 |       0.0000 |       0.0000 |       0.0000 |       0.0000 |       0.0000 |       0.0000 |       0.0000 |       0.0000 |       0.0000 |       0.0000 |       0.0000 |       0.0000 |       0.0000 |       0.0000 |       0.0000 |       0.0000 |       0.0000 |       0.0000 |       0.0000 |       0.0000 |       0.0000 |       0.0000 |       0.0000 |       0.0000 |       0.0000 |       0.0000 |       0.0000 |       0.0000 |       0.0000 |
dtlb.accesses                               140105 |       140105 |       140105 |       140105 |       292873 |       292873 |       292873 |       292873 |       618029 |       618029 |       618029 |       618029 |      1307310 |      1307310 |      1307310 |      1307310 |      2737415 |      2737415 |      2737415 |      2737415 |      5749665 |      5749665 |      5749665 |      5749665 |     12019791 |     12019791 |     12019791 |     12019791 |     25025807 |     25025807 |     25025807 |     25025807 |     52552708 |     52552708 |     52552708 |     52552708 |    109803264 |    109803264 |    109803264 |    109803264 |    228263962 |    228263962 |    228263962 |    228263962 |
dtlb.hits                                   140093 |       140093 |       140093 |       140093 |       292857 |       292857 |       292857 |       292857 |       618005 |       618005 |       618005 |       618005 |      1307270 |      1307270 |      1307270 |      1307270 |      2737343 |      2737343 |      2737343 |      2737343 |      5749505 |      5749505 |      5749505 |      5749505 |     12019008 |     12019008 |     12019008 |     12019008 |     25023814 |     25023814 |     25023814 |     25023814 |     52546992 |     52546992 |     52546992 |     52546992 |    109789269 |    109789269 |    109789269 |    109789269 |    228231174 |    228231174 |    228231174 |    228231174 |
dtlb.misses                                     12 |           12 |           12 |           12 |           16 |           16 |           16 |           16 |           24 |           24 |           24 |           24 |           40 |           40 |           40 |           40 |           72 |           72 |           72 |           72 |          160 |          160 |          160 |          160 |          783 |          783 |          783 |          783 |         1993 |         1993 |         1993 |         1993 |         5716 |         5716 |         5716 |         5716 |        13995 |        13995 |        13995 |        13995 |        32788 |        32788 |        32788 |        32788 |
dtlb.replacements                                0 |            0 |            0 |            0 |            0 |            0 |            0 |            0 |            0 |            0 |            0 |            0 |            0 |            0 |            0 |            0 |            0 |            0 |            0 |            0 |           32 |           32 |           32 |           32 |          655 |          655 |          655 |          655 |         1865 |         1865 |         1865 |         1865 |         5588 |         5588 |         5588 |         5588 |        13867 |        13867 |        13867 |        13867 |        32660 |        32660 |        32660 |        32660 |
dtlb.writebacks                                  0 |            0 |            0 |            0 |            0 |            0 |            0 |            0 |            0 |            0 |            0 |            0 |            0 |            0 |            0 |            0 |            0 |            0 |            0 |            0 |           30 |           30 |           30 |           30 |          653 |          653 |          653 |          653 |         1863 |         1863 |         1863 |         1863 |         5586 |         5586 |         5586 |         5586 |        13865 |        13865 |        13865 |        13865 |        32658 |        32658 |        32658 |        32658 |
dtlb.invalidations                               0 |            0 |            0 |            0 |            0 |            0 |            0 |            0 |            0 |            0 |            0 |            0 |            0 |            0 |            0 |            0 |            0 |            0 |            0 |            0 |            0 |            0 |            0 |            0 |            0 |            0 |            0 |            0 |            0 |            0 |            0 |            0 |            0 |            0 |            0 |            0 |            0 |            0 |            0 |            0 |            0 |            0 |            0 |            0 |
dtlb.miss_rate                              0.0001 |       0.0001 |       0.0001 |       0.0001 |       0.0001 |       0.0001 |       0.0001 |       0.0001 |       0.0000 |       0.0000 |       0.0000 |       0.0000 |       0.0000 |       0.0000 |       0.0000 |       0.0000 |       0.0000 |       0.0000 |       0.0000 |       0.0000 |       0.0000 |       0.0000 |       0.0000 |       0.0000 |       0.0001 |       0.0001 |       0.0001 |       0.0001 |       0.0001 |       0.0001 |       0.0001 |       0.0001 |       0.0001 |       0.0001 |       0.0001 |       0.0001 |       0.0001 |       0.0001 |       0.0001 |       0.0001 |       0.0001 |       0.0001 |       0.0001 |       0.0001 |
dtlb.repl_rate                              0.0000 |       0.0000 |       0.0000 |       0.0000 |       0.0000 |       0.0000 |       0.0000 |       0.0000 |       0.0000 |       0.0000 |       0.0000 |       0.0000 |       0.0000 |       0.0000 |       0.0000 |       0.0000 |       0.0000 |       0.0000 |       0.0000 |       0.0000 |       0.0000 |       0.0000 |       0.0000 |       0.0000 |       0.0001 |       0.0001 |       0.0001 |       0.0001 |       0.0001 |       0.0001 |       0.0001 |       0.0001 |       0.0001 |       0.0001 |       0.0001 |       0.0001 |       0.0001 |       0.0001 |       0.0001 |       0.0001 |       0.0001 |       0.0001 |       0.0001 |       0.0001 |
dtlb.wb_rate                                0.0000 |       0.0000 |       0.0000 |       0.0000 |       0.0000 |       0.0000 |       0.0000 |       0.0000 |       0.0000 |       0.0000 |       0.0000 |       0.0000 |       0.0000 |       0.0000 |       0.0000 |       0.0000 |       0.0000 |       0.0000 |       0.0000 |       0.0000 |       0.0000 |       0.0000 |       0.0000 |       0.0000 |       0.0001 |       0.0001 |       0.0001 |       0.0001 |       0.0001 |       0.0001 |       0.0001 |       0.0001 |       0.0001 |       0.0001 |       0.0001 |       0.0001 |       0.0001 |       0.0001 |       0.0001 |       0.0001 |       0.0001 |       0.0001 |       0.0001 |       0.0001 |
dtlb.inv_rate                               0.0000 |       0.0000 |       0.0000 |       0.0000 |       0.0000 |       0.0000 |       0.0000 |       0.0000 |       0.0000 |       0.0000 |       0.0000 |       0.0000 |       0.0000 |       0.0000 |       0.0000 |       0.0000 |       0.0000 |       0.0000 |       0.0000 |       0.0000 |       0.0000 |       0.0000 |       0.0000 |       0.0000 |       0.0000 |       0.0000 |       0.0000 |       0.0000 |       0.0000 |       0.0000 |       0.0000 |       0.0000 |       0.0000 |       0.0000 |       0.0000 |       0.0000 |       0.0000 |       0.0000 |       0.0000 |       0.0000 |       0.0000 |       0.0000 |       0.0000 |       0.0000 |
ld_text_base                            0x00400000 |   0x00400000 |   0x00400000 |   0x00400000 |   0x00400000 |   0x00400000 |   0x00400000 |   0x00400000 |   0x00400000 |   0x00400000 |   0x00400000 |   0x00400000 |   0x00400000 |   0x00400000 |   0x00400000 |   0x00400000 |   0x00400000 |   0x00400000 |   0x00400000 |   0x00400000 |   0x00400000 |   0x00400000 |   0x00400000 |   0x00400000 |   0x00400000 |   0x00400000 |   0x00400000 |   0x00400000 |   0x00400000 |   0x00400000 |   0x00400000 |   0x00400000 |   0x00400000 |   0x00400000 |   0x00400000 |   0x00400000 |   0x00400000 |   0x00400000 |   0x00400000 |   0x00400000 |   0x00400000 |   0x00400000 |   0x00400000 |   0x00400000 |
ld_text_size                                 73104 |        73104 |        73104 |        73104 |        73136 |        73136 |        73136 |        73136 |        73152 |        73152 |        73152 |        73152 |        73168 |        73168 |        73168 |        73168 |        73168 |        73168 |        73168 |        73168 |        73168 |        73168 |        73168 |        73168 |        73168 |        73168 |        73168 |        73168 |        73168 |        73168 |        73168 |        73168 |        73168 |        73168 |        73168 |        73168 |        73168 |        73168 |        73168 |        73168 |        73168 |        73168 |        73168 |        73168 |
ld_data_base                            0x10000000 |   0x10000000 |   0x10000000 |   0x10000000 |   0x10000000 |   0x10000000 |   0x10000000 |   0x10000000 |   0x10000000 |   0x10000000 |   0x10000000 |   0x10000000 |   0x10000000 |   0x10000000 |   0x10000000 |   0x10000000 |   0x10000000 |   0x10000000 |   0x10000000 |   0x10000000 |   0x10000000 |   0x10000000 |   0x10000000 |   0x10000000 |   0x10000000 |   0x10000000 |   0x10000000 |   0x10000000 |   0x10000000 |   0x10000000 |   0x10000000 |   0x10000000 |   0x10000000 |   0x10000000 |   0x10000000 |   0x10000000 |   0x10000000 |   0x10000000 |   0x10000000 |   0x10000000 |   0x10000000 |   0x10000000 |   0x10000000 |   0x10000000 |
ld_data_size                                  8192 |         8192 |         8192 |         8192 |         8192 |         8192 |         8192 |         8192 |         8192 |         8192 |         8192 |         8192 |         8192 |         8192 |         8192 |         8192 |         8192 |         8192 |         8192 |         8192 |         8192 |         8192 |         8192 |         8192 |         8192 |         8192 |         8192 |         8192 |         8192 |         8192 |         8192 |         8192 |         8192 |         8192 |         8192 |         8192 |         8192 |         8192 |         8192 |         8192 |         8192 |         8192 |         8192 |         8192 |
ld_stack_base                           0x7fffc000 |   0x7fffc000 |   0x7fffc000 |   0x7fffc000 |   0x7fffc000 |   0x7fffc000 |   0x7fffc000 |   0x7fffc000 |   0x7fffc000 |   0x7fffc000 |   0x7fffc000 |   0x7fffc000 |   0x7fffc000 |   0x7fffc000 |   0x7fffc000 |   0x7fffc000 |   0x7fffc000 |   0x7fffc000 |   0x7fffc000 |   0x7fffc000 |   0x7fffc000 |   0x7fffc000 |   0x7fffc000 |   0x7fffc000 |   0x7fffc000 |   0x7fffc000 |   0x7fffc000 |   0x7fffc000 |   0x7fffc000 |   0x7fffc000 |   0x7fffc000 |   0x7fffc000 |   0x7fffc000 |   0x7fffc000 |   0x7fffc000 |   0x7fffc000 |   0x7fffc000 |   0x7fffc000 |   0x7fffc000 |   0x7fffc000 |   0x7fffc000 |   0x7fffc000 |   0x7fffc000 |   0x7fffc000 |
ld_stack_size                                16384 |        16384 |        16384 |        16384 |        16384 |        16384 |        16384 |        16384 |        16384 |        16384 |        16384 |        16384 |        16384 |        16384 |        16384 |        16384 |        16384 |        16384 |        16384 |        16384 |        16384 |        16384 |        16384 |        16384 |        16384 |        16384 |        16384 |        16384 |        16384 |        16384 |        16384 |        16384 |        16384 |        16384 |        16384 |        16384 |        16384 |        16384 |        16384 |        16384 |        16384 |        16384 |        16384 |        16384 |
ld_prog_entry                           0x00400140 |   0x00400140 |   0x00400140 |   0x00400140 |   0x00400140 |   0x00400140 |   0x00400140 |   0x00400140 |   0x00400140 |   0x00400140 |   0x00400140 |   0x00400140 |   0x00400140 |   0x00400140 |   0x00400140 |   0x00400140 |   0x00400140 |   0x00400140 |   0x00400140 |   0x00400140 |   0x00400140 |   0x00400140 |   0x00400140 |   0x00400140 |   0x00400140 |   0x00400140 |   0x00400140 |   0x00400140 |   0x00400140 |   0x00400140 |   0x00400140 |   0x00400140 |   0x00400140 |   0x00400140 |   0x00400140 |   0x00400140 |   0x00400140 |   0x00400140 |   0x00400140 |   0x00400140 |   0x00400140 |   0x00400140 |   0x00400140 |   0x00400140 |
ld_environ_base                         0x7fff8000 |   0x7fff8000 |   0x7fff8000 |   0x7fff8000 |   0x7fff8000 |   0x7fff8000 |   0x7fff8000 |   0x7fff8000 |   0x7fff8000 |   0x7fff8000 |   0x7fff8000 |   0x7fff8000 |   0x7fff8000 |   0x7fff8000 |   0x7fff8000 |   0x7fff8000 |   0x7fff8000 |   0x7fff8000 |   0x7fff8000 |   0x7fff8000 |   0x7fff8000 |   0x7fff8000 |   0x7fff8000 |   0x7fff8000 |   0x7fff8000 |   0x7fff8000 |   0x7fff8000 |   0x7fff8000 |   0x7fff8000 |   0x7fff8000 |   0x7fff8000 |   0x7fff8000 |   0x7fff8000 |   0x7fff8000 |   0x7fff8000 |   0x7fff8000 |   0x7fff8000 |   0x7fff8000 |   0x7fff8000 |   0x7fff8000 |   0x7fff8000 |   0x7fff8000 |   0x7fff8000 |   0x7fff8000 |
ld_target_big_endian                             0 |            0 |            0 |            0 |            0 |            0 |            0 |            0 |            0 |            0 |            0 |            0 |            0 |            0 |            0 |            0 |            0 |            0 |            0 |            0 |            0 |            0 |            0 |            0 |            0 |            0 |            0 |            0 |            0 |            0 |            0 |            0 |            0 |            0 |            0 |            0 |            0 |            0 |            0 |            0 |            0 |            0 |            0 |            0 |
mem.page_count                                  30 |           30 |           30 |           30 |           34 |           34 |           34 |           34 |           42 |           42 |           42 |           42 |           58 |           58 |           58 |           58 |           90 |           90 |           90 |           90 |          154 |          154 |          154 |          154 |          282 |          282 |          282 |          282 |          538 |          538 |          538 |          538 |         1050 |         1050 |         1050 |         1050 |         2074 |         2074 |         2074 |         2074 |         4122 |         4122 |         4122 |         4122 |
mem.page_mem                                  120k |         120k |         120k |         120k |         136k |         136k |         136k |         136k |         168k |         168k |         168k |         168k |         232k |         232k |         232k |         232k |         360k |         360k |         360k |         360k |         616k |         616k |         616k |         616k |        1128k |        1128k |        1128k |        1128k |        2152k |        2152k |        2152k |        2152k |        4200k |        4200k |        4200k |        4200k |        8296k |        8296k |        8296k |        8296k |       16488k |       16488k |       16488k |       16488k |
mem.ptab_misses                                 30 |           30 |           30 |           30 |           34 |           34 |           34 |           34 |           42 |           42 |           42 |           42 |           58 |           58 |           58 |           58 |           90 |           90 |           90 |           90 |          154 |          154 |          154 |          154 |          282 |          282 |          282 |          282 |          538 |          538 |          538 |          538 |         1050 |         1050 |         1050 |         1050 |         2074 |         2074 |         2074 |         2074 |         4122 |         4122 |         4122 |         4122 |
mem.ptab_accesses                          2618794 |      2618794 |      2618794 |      2618794 |      5055782 |      5055782 |      5055782 |      5055782 |     10297802 |     10297802 |     10297802 |     10297802 |     21675236 |     21675236 |     21675236 |     21675236 |     45106198 |     45106198 |     45106198 |     45106198 |     95179366 |     95179366 |     95179366 |     95179366 |    199627258 |    199627258 |    199627258 |    199627258 |    416443478 |    416443478 |    416443478 |    416443478 |    884068640 |    884068640 |    884068640 |    884068640 |   1858411036 |   1858411036 |   1858411036 |   1858411036 |   3884512200 |   3884512200 |   3884512200 |   3884512200 |
mem.ptab_miss_rate                          0.0000 |       0.0000 |       0.0000 |       0.0000 |       0.0000 |       0.0000 |       0.0000 |       0.0000 |       0.0000 |       0.0000 |       0.0000 |       0.0000 |       0.0000 |       0.0000 |       0.0000 |       0.0000 |       0.0000 |       0.0000 |       0.0000 |       0.0000 |       0.0000 |       0.0000 |       0.0000 |       0.0000 |       0.0000 |       0.0000 |       0.0000 |       0.0000 |       0.0000 |       0.0000 |       0.0000 |       0.0000 |       0.0000 |       0.0000 |       0.0000 |       0.0000 |       0.0000 |       0.0000 |       0.0000 |       0.0000 |       0.0000 |       0.0000 |       0.0000 |       0.0000 |
-------------------------------------------------------------------------------------------------
sim-bpred                                     4096 |         4096 |         4096 |         4096 |         4096 |         4096 |         4096 |         8192 |         8192 |         8192 |         8192 |         8192 |         8192 |         8192 |        16384 |        16384 |        16384 |        16384 |        16384 |        16384 |        16384 |        32768 |        32768 |        32768 |        32768 |        32768 |        32768 |        32768 |        65536 |        65536 |        65536 |        65536 |        65536 |        65536 |        65536 |       131072 |       131072 |       131072 |       131072 |       131072 |       131072 |       131072 |       262144 |       262144 |       262144 |       262144 |       262144 |       262144 |       262144 |       524288 |       524288 |       524288 |       524288 |       524288 |       524288 |       524288 |      1048576 |      1048576 |      1048576 |      1048576 |      1048576 |      1048576 |      1048576 |      2097152 |      2097152 |      2097152 |      2097152 |      2097152 |      2097152 |      2097152 |      4194304 |      4194304 |      4194304 |      4194304 |      4194304 |      4194304 |      4194304 |
-bpred bimod -bpred:bimod 512
-bpred bimod -bpred:bimod 1024
-bpred bimod -bpred:bimod 2048
-bpred 2lev -bpred:2lev 1 512 10 1
-bpred 2lev -bpred:2lev 1 1024 10 1
-bpred 2lev -bpred:2lev 1 2048 10 1
-bpred 2lev -bpred:2lev 1 4096 10 1
-------------------------------------------------------------------------------------------------
sim_num_insn                                471334 |       471334 |       471334 |       471334 |       471334 |       471334 |       471334 |      1004149 |      1004149 |      1004149 |      1004149 |      1004149 |      1004149 |      1004149 |      2152052 |      2152052 |      2152052 |      2152052 |      2152052 |      2152052 |      2152052 |      4651746 |      4651746 |      4651746 |      4651746 |      4651746 |      4651746 |      4651746 |      9794434 |      9794434 |      9794434 |      9794434 |      9794434 |      9794434 |      9794434 |     20806601 |     20806601 |     20806601 |     20806601 |     20806601 |     20806601 |     20806601 |     43783511 |     43783511 |     43783511 |     43783511 |     43783511 |     43783511 |     43783511 |     91484558 |     91484558 |     91484558 |     91484558 |     91484558 |     91484558 |     91484558 |    194627398 |    194627398 |    194627398 |    194627398 |    194627398 |    194627398 |    194627398 |    409587719 |    409587719 |    409587719 |    409587719 |    409587719 |    409587719 |    409587719 |    856882661 |    856882661 |    856882661 |    856882661 |    856882661 |    856882661 |    856882661 |
sim_num_refs                                123639 |       123639 |       123639 |       123639 |       123639 |       123639 |       123639 |       260023 |       260023 |       260023 |       260023 |       260023 |       260023 |       260023 |       552411 |       552411 |       552411 |       552411 |       552411 |       552411 |       552411 |      1176156 |      1176156 |      1176156 |      1176156 |      1176156 |      1176156 |      1176156 |      2475189 |      2475189 |      2475189 |      2475189 |      2475189 |      2475189 |      2475189 |      5225295 |      5225295 |      5225295 |      5225295 |      5225295 |      5225295 |      5225295 |     10971133 |     10971133 |     10971133 |     10971133 |     10971133 |     10971133 |     10971133 |     22928573 |     22928573 |     22928573 |     22928573 |     22928573 |     22928573 |     22928573 |     48358322 |     48358322 |     48358322 |     48358322 |     48358322 |     48358322 |     48358322 |    101414574 |    101414574 |    101414574 |    101414574 |    101414574 |    101414574 |    101414574 |    211486664 |    211486664 |    211486664 |    211486664 |    211486664 |    211486664 |    211486664 |
sim_elapsed_time                                 1 |            1 |            1 |            1 |            1 |            1 |            1 |            1 |            1 |            1 |            1 |            1 |            1 |            1 |            1 |            1 |            1 |            1 |            1 |            1 |            1 |            1 |            1 |            1 |            1 |            1 |            1 |            1 |            1 |            1 |            1 |            1 |            1 |            1 |            2 |            3 |            2 |            3 |            2 |            2 |            3 |            2 |            5 |            5 |            6 |            5 |            6 |            5 |            6 |           11 |           11 |           12 |           11 |           12 |           11 |           12 |           24 |           24 |           24 |           25 |           24 |           25 |           24 |           51 |           51 |           50 |           52 |           51 |           52 |           51 |          105 |          106 |          106 |          107 |          107 |          108 |          107 |
sim_inst_rate                          471334.0000 |  471334.0000 |  471334.0000 |  471334.0000 |  471334.0000 |  471334.0000 |  471334.0000 | 1004149.0000 | 1004149.0000 | 1004149.0000 | 1004149.0000 | 1004149.0000 | 1004149.0000 | 1004149.0000 | 2152052.0000 | 2152052.0000 | 2152052.0000 | 2152052.0000 | 2152052.0000 | 2152052.0000 | 2152052.0000 | 4651746.0000 | 4651746.0000 | 4651746.0000 | 4651746.0000 | 4651746.0000 | 4651746.0000 | 4651746.0000 | 9794434.0000 | 9794434.0000 | 9794434.0000 | 9794434.0000 | 9794434.0000 | 9794434.0000 | 4897217.0000 | 6935533.6667 |10403300.5000 | 6935533.6667 |10403300.5000 |10403300.5000 | 6935533.6667 |10403300.5000 | 8756702.2000 | 8756702.2000 | 7297251.8333 | 8756702.2000 | 7297251.8333 | 8756702.2000 | 7297251.8333 | 8316778.0000 | 8316778.0000 | 7623713.1667 | 8316778.0000 | 7623713.1667 | 8316778.0000 | 7623713.1667 | 8109474.9167 | 8109474.9167 | 8109474.9167 | 7785095.9200 | 8109474.9167 | 7785095.9200 | 8109474.9167 | 8031131.7451 | 8031131.7451 | 8191754.3800 | 7876686.9038 | 8031131.7451 | 7876686.9038 | 8031131.7451 | 8160787.2476 | 8083798.6887 | 8083798.6887 | 8008249.1682 | 8008249.1682 | 7934098.7130 | 8008249.1682 |
sim_num_branches                             77394 |        77394 |        77394 |        77394 |        77394 |        77394 |        77394 |       166134 |       166134 |       166134 |       166134 |       166134 |       166134 |       166134 |       358676 |       358676 |       358676 |       358676 |       358676 |       358676 |       358676 |       778856 |       778856 |       778856 |       778856 |       778856 |       778856 |       778856 |      1646383 |      1646383 |      1646383 |      1646383 |      1646383 |      1646383 |      1646383 |      3512790 |      3512790 |      3512790 |      3512790 |      3512790 |      3512790 |      3512790 |      7423107 |      7423107 |      7423107 |      7423107 |      7423107 |      7423107 |      7423107 |     15553357 |     15553357 |     15553357 |     15553357 |     15553357 |     15553357 |     15553357 |     33195719 |     33195719 |     33195719 |     33195719 |     33195719 |     33195719 |     33195719 |     70047107 |     70047107 |     70047107 |     70047107 |     70047107 |     70047107 |     70047107 |    146757651 |    146757651 |    146757651 |    146757651 |    146757651 |    146757651 |    146757651 |
sim_IPB                                     6.0901 |       6.0901 |       6.0901 |       6.0901 |       6.0901 |       6.0901 |       6.0901 |       6.0442 |       6.0442 |       6.0442 |       6.0442 |       6.0442 |       6.0442 |       6.0442 |       6.0000 |       6.0000 |       6.0000 |       6.0000 |       6.0000 |       6.0000 |       6.0000 |       5.9725 |       5.9725 |       5.9725 |       5.9725 |       5.9725 |       5.9725 |       5.9725 |       5.9491 |       5.9491 |       5.9491 |       5.9491 |       5.9491 |       5.9491 |       5.9491 |       5.9231 |       5.9231 |       5.9231 |       5.9231 |       5.9231 |       5.9231 |       5.9231 |       5.8983 |       5.8983 |       5.8983 |       5.8983 |       5.8983 |       5.8983 |       5.8983 |       5.8820 |       5.8820 |       5.8820 |       5.8820 |       5.8820 |       5.8820 |       5.8820 |       5.8630 |       5.8630 |       5.8630 |       5.8630 |       5.8630 |       5.8630 |       5.8630 |       5.8473 |       5.8473 |       5.8473 |       5.8473 |       5.8473 |       5.8473 |       5.8473 |       5.8388 |       5.8388 |       5.8388 |       5.8388 |       5.8388 |       5.8388 |       5.8388 |
bpred_bimod.lookups                          77394 |        77394 |        77394 |xxxxxxxxxxxxx |xxxxxxxxxxxxx |xxxxxxxxxxxxx |xxxxxxxxxxxxx |       166134 |       166134 |       166134 |xxxxxxxxxxxxx |xxxxxxxxxxxxx |xxxxxxxxxxxxx |xxxxxxxxxxxxx |       358676 |       358676 |       358676 |xxxxxxxxxxxxx |xxxxxxxxxxxxx |xxxxxxxxxxxxx |xxxxxxxxxxxxx |       778856 |       778856 |       778856 |xxxxxxxxxxxxx |xxxxxxxxxxxxx |xxxxxxxxxxxxx |xxxxxxxxxxxxx |      1646383 |      1646383 |      1646383 |xxxxxxxxxxxxx |xxxxxxxxxxxxx |xxxxxxxxxxxxx |xxxxxxxxxxxxx |      3512790 |      3512790 |      3512790 |xxxxxxxxxxxxx |xxxxxxxxxxxxx |xxxxxxxxxxxxx |xxxxxxxxxxxxx |      7423107 |      7423107 |      7423107 |xxxxxxxxxxxxx |xxxxxxxxxxxxx |xxxxxxxxxxxxx |xxxxxxxxxxxxx |     15553357 |     15553357 |     15553357 |xxxxxxxxxxxxx |xxxxxxxxxxxxx |xxxxxxxxxxxxx |xxxxxxxxxxxxx |     33195719 |     33195719 |     33195719 |xxxxxxxxxxxxx |xxxxxxxxxxxxx |xxxxxxxxxxxxx |xxxxxxxxxxxxx |     70047107 |     70047107 |     70047107 |xxxxxxxxxxxxx |xxxxxxxxxxxxx |xxxxxxxxxxxxx |xxxxxxxxxxxxx |    146757651 |    146757651 |    146757651 |
bpred_bimod.updates                          77394 |        77394 |        77394 |xxxxxxxxxxxxx |xxxxxxxxxxxxx |xxxxxxxxxxxxx |xxxxxxxxxxxxx |       166134 |       166134 |       166134 |xxxxxxxxxxxxx |xxxxxxxxxxxxx |xxxxxxxxxxxxx |xxxxxxxxxxxxx |       358676 |       358676 |       358676 |xxxxxxxxxxxxx |xxxxxxxxxxxxx |xxxxxxxxxxxxx |xxxxxxxxxxxxx |       778856 |       778856 |       778856 |xxxxxxxxxxxxx |xxxxxxxxxxxxx |xxxxxxxxxxxxx |xxxxxxxxxxxxx |      1646383 |      1646383 |      1646383 |xxxxxxxxxxxxx |xxxxxxxxxxxxx |xxxxxxxxxxxxx |xxxxxxxxxxxxx |      3512790 |      3512790 |      3512790 |xxxxxxxxxxxxx |xxxxxxxxxxxxx |xxxxxxxxxxxxx |xxxxxxxxxxxxx |      7423107 |      7423107 |      7423107 |xxxxxxxxxxxxx |xxxxxxxxxxxxx |xxxxxxxxxxxxx |xxxxxxxxxxxxx |     15553357 |     15553357 |     15553357 |xxxxxxxxxxxxx |xxxxxxxxxxxxx |xxxxxxxxxxxxx |xxxxxxxxxxxxx |     33195719 |     33195719 |     33195719 |xxxxxxxxxxxxx |xxxxxxxxxxxxx |xxxxxxxxxxxxx |xxxxxxxxxxxxx |     70047107 |     70047107 |     70047107 |xxxxxxxxxxxxx |xxxxxxxxxxxxx |xxxxxxxxxxxxx |xxxxxxxxxxxxx |    146757651 |    146757651 |    146757651 |
bpred_bimod.addr_hits                        55801 |        55801 |        55801 |xxxxxxxxxxxxx |xxxxxxxxxxxxx |xxxxxxxxxxxxx |xxxxxxxxxxxxx |       119648 |       119648 |       119650 |xxxxxxxxxxxxx |xxxxxxxxxxxxx |xxxxxxxxxxxxx |xxxxxxxxxxxxx |       260797 |       260799 |       260800 |xxxxxxxxxxxxx |xxxxxxxxxxxxx |xxxxxxxxxxxxx |xxxxxxxxxxxxx |       569394 |       569393 |       569394 |xxxxxxxxxxxxx |xxxxxxxxxxxxx |xxxxxxxxxxxxx |xxxxxxxxxxxxx |      1191186 |      1191185 |      1191185 |xxxxxxxxxxxxx |xxxxxxxxxxxxx |xxxxxxxxxxxxx |xxxxxxxxxxxxx |      2563820 |      2563819 |      2563820 |xxxxxxxxxxxxx |xxxxxxxxxxxxx |xxxxxxxxxxxxx |xxxxxxxxxxxxx |      5380890 |      5380889 |      5380890 |xxxxxxxxxxxxx |xxxxxxxxxxxxx |xxxxxxxxxxxxx |xxxxxxxxxxxxx |     11172107 |     11172106 |     11172107 |xxxxxxxxxxxxx |xxxxxxxxxxxxx |xxxxxxxxxxxxx |xxxxxxxxxxxxx |     24239396 |     24239395 |     24239396 |xxxxxxxxxxxxx |xxxxxxxxxxxxx |xxxxxxxxxxxxx |xxxxxxxxxxxxx |     51052266 |     51052265 |     51052265 |xxxxxxxxxxxxx |xxxxxxxxxxxxx |xxxxxxxxxxxxx |xxxxxxxxxxxxx |    107115221 |    107115220 |    107115220 |
bpred_bimod.dir_hits                         55914 |        55912 |        55913 |xxxxxxxxxxxxx |xxxxxxxxxxxxx |xxxxxxxxxxxxx |xxxxxxxxxxxxx |       119762 |       119758 |       119759 |xxxxxxxxxxxxx |xxxxxxxxxxxxx |xxxxxxxxxxxxx |xxxxxxxxxxxxx |       260908 |       260908 |       260909 |xxxxxxxxxxxxx |xxxxxxxxxxxxx |xxxxxxxxxxxxx |xxxxxxxxxxxxx |       569511 |       569507 |       569506 |xxxxxxxxxxxxx |xxxxxxxxxxxxx |xxxxxxxxxxxxx |xxxxxxxxxxxxx |      1191297 |      1191293 |      1191292 |xxxxxxxxxxxxx |xxxxxxxxxxxxx |xxxxxxxxxxxxx |xxxxxxxxxxxxx |      2563936 |      2563932 |      2563931 |xxxxxxxxxxxxx |xxxxxxxxxxxxx |xxxxxxxxxxxxx |xxxxxxxxxxxxx |      5381007 |      5381003 |      5381001 |xxxxxxxxxxxxx |xxxxxxxxxxxxx |xxxxxxxxxxxxx |xxxxxxxxxxxxx |     11172224 |     11172220 |     11172217 |xxxxxxxxxxxxx |xxxxxxxxxxxxx |xxxxxxxxxxxxx |xxxxxxxxxxxxx |     24239513 |     24239510 |     24239509 |xxxxxxxxxxxxx |xxxxxxxxxxxxx |xxxxxxxxxxxxx |xxxxxxxxxxxxx |     51052383 |     51052379 |     51052376 |xxxxxxxxxxxxx |xxxxxxxxxxxxx |xxxxxxxxxxxxx |xxxxxxxxxxxxx |    107115333 |    107115329 |    107115327 |
bpred_bimod.misses                           21480 |        21482 |        21481 |xxxxxxxxxxxxx |xxxxxxxxxxxxx |xxxxxxxxxxxxx |xxxxxxxxxxxxx |        46372 |        46376 |        46375 |xxxxxxxxxxxxx |xxxxxxxxxxxxx |xxxxxxxxxxxxx |xxxxxxxxxxxxx |        97768 |        97768 |        97767 |xxxxxxxxxxxxx |xxxxxxxxxxxxx |xxxxxxxxxxxxx |xxxxxxxxxxxxx |       209345 |       209349 |       209350 |xxxxxxxxxxxxx |xxxxxxxxxxxxx |xxxxxxxxxxxxx |xxxxxxxxxxxxx |       455086 |       455090 |       455091 |xxxxxxxxxxxxx |xxxxxxxxxxxxx |xxxxxxxxxxxxx |xxxxxxxxxxxxx |       948854 |       948858 |       948859 |xxxxxxxxxxxxx |xxxxxxxxxxxxx |xxxxxxxxxxxxx |xxxxxxxxxxxxx |      2042100 |      2042104 |      2042106 |xxxxxxxxxxxxx |xxxxxxxxxxxxx |xxxxxxxxxxxxx |xxxxxxxxxxxxx |      4381133 |      4381137 |      4381140 |xxxxxxxxxxxxx |xxxxxxxxxxxxx |xxxxxxxxxxxxx |xxxxxxxxxxxxx |      8956206 |      8956209 |      8956210 |xxxxxxxxxxxxx |xxxxxxxxxxxxx |xxxxxxxxxxxxx |xxxxxxxxxxxxx |     18994724 |     18994728 |     18994731 |xxxxxxxxxxxxx |xxxxxxxxxxxxx |xxxxxxxxxxxxx |xxxxxxxxxxxxx |     39642318 |     39642322 |     39642324 |
bpred_bimod.jr_hits                             64 |           64 |           64 |xxxxxxxxxxxxx |xxxxxxxxxxxxx |xxxxxxxxxxxxx |xxxxxxxxxxxxx |           64 |           64 |           64 |xxxxxxxxxxxxx |xxxxxxxxxxxxx |xxxxxxxxxxxxx |xxxxxxxxxxxxx |           64 |           64 |           64 |xxxxxxxxxxxxx |xxxxxxxxxxxxx |xxxxxxxxxxxxx |xxxxxxxxxxxxx |           64 |           64 |           64 |xxxxxxxxxxxxx |xxxxxxxxxxxxx |xxxxxxxxxxxxx |xxxxxxxxxxxxx |           64 |           64 |           64 |xxxxxxxxxxxxx |xxxxxxxxxxxxx |xxxxxxxxxxxxx |xxxxxxxxxxxxx |           64 |           64 |           64 |xxxxxxxxxxxxx |xxxxxxxxxxxxx |xxxxxxxxxxxxx |xxxxxxxxxxxxx |           64 |           64 |           64 |xxxxxxxxxxxxx |xxxxxxxxxxxxx |xxxxxxxxxxxxx |xxxxxxxxxxxxx |           64 |           64 |           64 |xxxxxxxxxxxxx |xxxxxxxxxxxxx |xxxxxxxxxxxxx |xxxxxxxxxxxxx |           64 |           64 |           64 |xxxxxxxxxxxxx |xxxxxxxxxxxxx |xxxxxxxxxxxxx |xxxxxxxxxxxxx |           64 |           64 |           64 |xxxxxxxxxxxxx |xxxxxxxxxxxxx |xxxxxxxxxxxxx |xxxxxxxxxxxxx |           64 |           64 |           64 |
bpred_bimod.jr_seen                             64 |           64 |           64 |xxxxxxxxxxxxx |xxxxxxxxxxxxx |xxxxxxxxxxxxx |xxxxxxxxxxxxx |           64 |           64 |           64 |xxxxxxxxxxxxx |xxxxxxxxxxxxx |xxxxxxxxxxxxx |xxxxxxxxxxxxx |           64 |           64 |           64 |xxxxxxxxxxxxx |xxxxxxxxxxxxx |xxxxxxxxxxxxx |xxxxxxxxxxxxx |           64 |           64 |           64 |xxxxxxxxxxxxx |xxxxxxxxxxxxx |xxxxxxxxxxxxx |xxxxxxxxxxxxx |           64 |           64 |           64 |xxxxxxxxxxxxx |xxxxxxxxxxxxx |xxxxxxxxxxxxx |xxxxxxxxxxxxx |           64 |           64 |           64 |xxxxxxxxxxxxx |xxxxxxxxxxxxx |xxxxxxxxxxxxx |xxxxxxxxxxxxx |           64 |           64 |           64 |xxxxxxxxxxxxx |xxxxxxxxxxxxx |xxxxxxxxxxxxx |xxxxxxxxxxxxx |           64 |           64 |           64 |xxxxxxxxxxxxx |xxxxxxxxxxxxx |xxxxxxxxxxxxx |xxxxxxxxxxxxx |           64 |           64 |           64 |xxxxxxxxxxxxx |xxxxxxxxxxxxx |xxxxxxxxxxxxx |xxxxxxxxxxxxx |           64 |           64 |           64 |xxxxxxxxxxxxx |xxxxxxxxxxxxx |xxxxxxxxxxxxx |xxxxxxxxxxxxx |           64 |           64 |           64 |
bpred_bimod.jr_non_ras_hits.PP                   0 |            0 |            0 |xxxxxxxxxxxxx |xxxxxxxxxxxxx |xxxxxxxxxxxxx |xxxxxxxxxxxxx |            0 |            0 |            0 |xxxxxxxxxxxxx |xxxxxxxxxxxxx |xxxxxxxxxxxxx |xxxxxxxxxxxxx |            0 |            0 |            0 |xxxxxxxxxxxxx |xxxxxxxxxxxxx |xxxxxxxxxxxxx |xxxxxxxxxxxxx |            0 |            0 |            0 |xxxxxxxxxxxxx |xxxxxxxxxxxxx |xxxxxxxxxxxxx |xxxxxxxxxxxxx |            0 |            0 |            0 |xxxxxxxxxxxxx |xxxxxxxxxxxxx |xxxxxxxxxxxxx |xxxxxxxxxxxxx |            0 |            0 |            0 |xxxxxxxxxxxxx |xxxxxxxxxxxxx |xxxxxxxxxxxxx |xxxxxxxxxxxxx |            0 |            0 |            0 |xxxxxxxxxxxxx |xxxxxxxxxxxxx |xxxxxxxxxxxxx |xxxxxxxxxxxxx |            0 |            0 |            0 |xxxxxxxxxxxxx |xxxxxxxxxxxxx |xxxxxxxxxxxxx |xxxxxxxxxxxxx |            0 |            0 |            0 |xxxxxxxxxxxxx |xxxxxxxxxxxxx |xxxxxxxxxxxxx |xxxxxxxxxxxxx |            0 |            0 |            0 |xxxxxxxxxxxxx |xxxxxxxxxxxxx |xxxxxxxxxxxxx |xxxxxxxxxxxxx |            0 |            0 |            0 |
bpred_bimod.jr_non_ras_seen.PP                   0 |            0 |            0 |xxxxxxxxxxxxx |xxxxxxxxxxxxx |xxxxxxxxxxxxx |xxxxxxxxxxxxx |            0 |            0 |            0 |xxxxxxxxxxxxx |xxxxxxxxxxxxx |xxxxxxxxxxxxx |xxxxxxxxxxxxx |            0 |            0 |            0 |xxxxxxxxxxxxx |xxxxxxxxxxxxx |xxxxxxxxxxxxx |xxxxxxxxxxxxx |            0 |            0 |            0 |xxxxxxxxxxxxx |xxxxxxxxxxxxx |xxxxxxxxxxxxx |xxxxxxxxxxxxx |            0 |            0 |            0 |xxxxxxxxxxxxx |xxxxxxxxxxxxx |xxxxxxxxxxxxx |xxxxxxxxxxxxx |            0 |            0 |            0 |xxxxxxxxxxxxx |xxxxxxxxxxxxx |xxxxxxxxxxxxx |xxxxxxxxxxxxx |            0 |            0 |            0 |xxxxxxxxxxxxx |xxxxxxxxxxxxx |xxxxxxxxxxxxx |xxxxxxxxxxxxx |            0 |            0 |            0 |xxxxxxxxxxxxx |xxxxxxxxxxxxx |xxxxxxxxxxxxx |xxxxxxxxxxxxx |            0 |            0 |            0 |xxxxxxxxxxxxx |xxxxxxxxxxxxx |xxxxxxxxxxxxx |xxxxxxxxxxxxx |            0 |            0 |            0 |xxxxxxxxxxxxx |xxxxxxxxxxxxx |xxxxxxxxxxxxx |xxxxxxxxxxxxx |            0 |            0 |            0 |
bpred_bimod.bpred_addr_rate                 0.7210 |       0.7210 |       0.7210 |xxxxxxxxxxxxx |xxxxxxxxxxxxx |xxxxxxxxxxxxx |xxxxxxxxxxxxx |       0.7202 |       0.7202 |       0.7202 |xxxxxxxxxxxxx |xxxxxxxxxxxxx |xxxxxxxxxxxxx |xxxxxxxxxxxxx |       0.7271 |       0.7271 |       0.7271 |xxxxxxxxxxxxx |xxxxxxxxxxxxx |xxxxxxxxxxxxx |xxxxxxxxxxxxx |       0.7311 |       0.7311 |       0.7311 |xxxxxxxxxxxxx |xxxxxxxxxxxxx |xxxxxxxxxxxxx |xxxxxxxxxxxxx |       0.7235 |       0.7235 |       0.7235 |xxxxxxxxxxxxx |xxxxxxxxxxxxx |xxxxxxxxxxxxx |xxxxxxxxxxxxx |       0.7299 |       0.7299 |       0.7299 |xxxxxxxxxxxxx |xxxxxxxxxxxxx |xxxxxxxxxxxxx |xxxxxxxxxxxxx |       0.7249 |       0.7249 |       0.7249 |xxxxxxxxxxxxx |xxxxxxxxxxxxx |xxxxxxxxxxxxx |xxxxxxxxxxxxx |       0.7183 |       0.7183 |       0.7183 |xxxxxxxxxxxxx |xxxxxxxxxxxxx |xxxxxxxxxxxxx |xxxxxxxxxxxxx |       0.7302 |       0.7302 |       0.7302 |xxxxxxxxxxxxx |xxxxxxxxxxxxx |xxxxxxxxxxxxx |xxxxxxxxxxxxx |       0.7288 |       0.7288 |       0.7288 |xxxxxxxxxxxxx |xxxxxxxxxxxxx |xxxxxxxxxxxxx |xxxxxxxxxxxxx |       0.7299 |       0.7299 |       0.7299 |
bpred_bimod.bpred_dir_rate                  0.7225 |       0.7224 |       0.7224 |xxxxxxxxxxxxx |xxxxxxxxxxxxx |xxxxxxxxxxxxx |xxxxxxxxxxxxx |       0.7209 |       0.7209 |       0.7209 |xxxxxxxxxxxxx |xxxxxxxxxxxxx |xxxxxxxxxxxxx |xxxxxxxxxxxxx |       0.7274 |       0.7274 |       0.7274 |xxxxxxxxxxxxx |xxxxxxxxxxxxx |xxxxxxxxxxxxx |xxxxxxxxxxxxx |       0.7312 |       0.7312 |       0.7312 |xxxxxxxxxxxxx |xxxxxxxxxxxxx |xxxxxxxxxxxxx |xxxxxxxxxxxxx |       0.7236 |       0.7236 |       0.7236 |xxxxxxxxxxxxx |xxxxxxxxxxxxx |xxxxxxxxxxxxx |xxxxxxxxxxxxx |       0.7299 |       0.7299 |       0.7299 |xxxxxxxxxxxxx |xxxxxxxxxxxxx |xxxxxxxxxxxxx |xxxxxxxxxxxxx |       0.7249 |       0.7249 |       0.7249 |xxxxxxxxxxxxx |xxxxxxxxxxxxx |xxxxxxxxxxxxx |xxxxxxxxxxxxx |       0.7183 |       0.7183 |       0.7183 |xxxxxxxxxxxxx |xxxxxxxxxxxxx |xxxxxxxxxxxxx |xxxxxxxxxxxxx |       0.7302 |       0.7302 |       0.7302 |xxxxxxxxxxxxx |xxxxxxxxxxxxx |xxxxxxxxxxxxx |xxxxxxxxxxxxx |       0.7288 |       0.7288 |       0.7288 |xxxxxxxxxxxxx |xxxxxxxxxxxxx |xxxxxxxxxxxxx |xxxxxxxxxxxxx |       0.7299 |       0.7299 |       0.7299 |
bpred_bimod.bpred_jr_rate                   1.0000 |       1.0000 |       1.0000 |xxxxxxxxxxxxx |xxxxxxxxxxxxx |xxxxxxxxxxxxx |xxxxxxxxxxxxx |       1.0000 |       1.0000 |       1.0000 |xxxxxxxxxxxxx |xxxxxxxxxxxxx |xxxxxxxxxxxxx |xxxxxxxxxxxxx |       1.0000 |       1.0000 |       1.0000 |xxxxxxxxxxxxx |xxxxxxxxxxxxx |xxxxxxxxxxxxx |xxxxxxxxxxxxx |       1.0000 |       1.0000 |       1.0000 |xxxxxxxxxxxxx |xxxxxxxxxxxxx |xxxxxxxxxxxxx |xxxxxxxxxxxxx |       1.0000 |       1.0000 |       1.0000 |xxxxxxxxxxxxx |xxxxxxxxxxxxx |xxxxxxxxxxxxx |xxxxxxxxxxxxx |       1.0000 |       1.0000 |       1.0000 |xxxxxxxxxxxxx |xxxxxxxxxxxxx |xxxxxxxxxxxxx |xxxxxxxxxxxxx |       1.0000 |       1.0000 |       1.0000 |xxxxxxxxxxxxx |xxxxxxxxxxxxx |xxxxxxxxxxxxx |xxxxxxxxxxxxx |       1.0000 |       1.0000 |       1.0000 |xxxxxxxxxxxxx |xxxxxxxxxxxxx |xxxxxxxxxxxxx |xxxxxxxxxxxxx |       1.0000 |       1.0000 |       1.0000 |xxxxxxxxxxxxx |xxxxxxxxxxxxx |xxxxxxxxxxxxx |xxxxxxxxxxxxx |       1.0000 |       1.0000 |       1.0000 |xxxxxxxxxxxxx |xxxxxxxxxxxxx |xxxxxxxxxxxxx |xxxxxxxxxxxxx |       1.0000 |       1.0000 |       1.0000 |
bpred_bimod.bpred_jr_non_ras_rate.PP       <error: |      <error: |      <error: |xxxxxxxxxxxxx |xxxxxxxxxxxxx |xxxxxxxxxxxxx |xxxxxxxxxxxxx |      <error: |      <error: |      <error: |xxxxxxxxxxxxx |xxxxxxxxxxxxx |xxxxxxxxxxxxx |xxxxxxxxxxxxx |      <error: |      <error: |      <error: |xxxxxxxxxxxxx |xxxxxxxxxxxxx |xxxxxxxxxxxxx |xxxxxxxxxxxxx |      <error: |      <error: |      <error: |xxxxxxxxxxxxx |xxxxxxxxxxxxx |xxxxxxxxxxxxx |xxxxxxxxxxxxx |      <error: |      <error: |      <error: |xxxxxxxxxxxxx |xxxxxxxxxxxxx |xxxxxxxxxxxxx |xxxxxxxxxxxxx |      <error: |      <error: |      <error: |xxxxxxxxxxxxx |xxxxxxxxxxxxx |xxxxxxxxxxxxx |xxxxxxxxxxxxx |      <error: |      <error: |      <error: |xxxxxxxxxxxxx |xxxxxxxxxxxxx |xxxxxxxxxxxxx |xxxxxxxxxxxxx |      <error: |      <error: |      <error: |xxxxxxxxxxxxx |xxxxxxxxxxxxx |xxxxxxxxxxxxx |xxxxxxxxxxxxx |      <error: |      <error: |      <error: |xxxxxxxxxxxxx |xxxxxxxxxxxxx |xxxxxxxxxxxxx |xxxxxxxxxxxxx |      <error: |      <error: |      <error: |xxxxxxxxxxxxx |xxxxxxxxxxxxx |xxxxxxxxxxxxx |xxxxxxxxxxxxx |      <error: |      <error: |      <error: |
bpred_bimod.retstack_pushes                     66 |           66 |           66 |xxxxxxxxxxxxx |xxxxxxxxxxxxx |xxxxxxxxxxxxx |xxxxxxxxxxxxx |           66 |           66 |           66 |xxxxxxxxxxxxx |xxxxxxxxxxxxx |xxxxxxxxxxxxx |xxxxxxxxxxxxx |           66 |           66 |           66 |xxxxxxxxxxxxx |xxxxxxxxxxxxx |xxxxxxxxxxxxx |xxxxxxxxxxxxx |           66 |           66 |           66 |xxxxxxxxxxxxx |xxxxxxxxxxxxx |xxxxxxxxxxxxx |xxxxxxxxxxxxx |           66 |           66 |           66 |xxxxxxxxxxxxx |xxxxxxxxxxxxx |xxxxxxxxxxxxx |xxxxxxxxxxxxx |           66 |           66 |           66 |xxxxxxxxxxxxx |xxxxxxxxxxxxx |xxxxxxxxxxxxx |xxxxxxxxxxxxx |           66 |           66 |           66 |xxxxxxxxxxxxx |xxxxxxxxxxxxx |xxxxxxxxxxxxx |xxxxxxxxxxxxx |           66 |           66 |           66 |xxxxxxxxxxxxx |xxxxxxxxxxxxx |xxxxxxxxxxxxx |xxxxxxxxxxxxx |           66 |           66 |           66 |xxxxxxxxxxxxx |xxxxxxxxxxxxx |xxxxxxxxxxxxx |xxxxxxxxxxxxx |           66 |           66 |           66 |xxxxxxxxxxxxx |xxxxxxxxxxxxx |xxxxxxxxxxxxx |xxxxxxxxxxxxx |           66 |           66 |           66 |
bpred_bimod.retstack_pops                       64 |           64 |           64 |xxxxxxxxxxxxx |xxxxxxxxxxxxx |xxxxxxxxxxxxx |xxxxxxxxxxxxx |           64 |           64 |           64 |xxxxxxxxxxxxx |xxxxxxxxxxxxx |xxxxxxxxxxxxx |xxxxxxxxxxxxx |           64 |           64 |           64 |xxxxxxxxxxxxx |xxxxxxxxxxxxx |xxxxxxxxxxxxx |xxxxxxxxxxxxx |           64 |           64 |           64 |xxxxxxxxxxxxx |xxxxxxxxxxxxx |xxxxxxxxxxxxx |xxxxxxxxxxxxx |           64 |           64 |           64 |xxxxxxxxxxxxx |xxxxxxxxxxxxx |xxxxxxxxxxxxx |xxxxxxxxxxxxx |           64 |           64 |           64 |xxxxxxxxxxxxx |xxxxxxxxxxxxx |xxxxxxxxxxxxx |xxxxxxxxxxxxx |           64 |           64 |           64 |xxxxxxxxxxxxx |xxxxxxxxxxxxx |xxxxxxxxxxxxx |xxxxxxxxxxxxx |           64 |           64 |           64 |xxxxxxxxxxxxx |xxxxxxxxxxxxx |xxxxxxxxxxxxx |xxxxxxxxxxxxx |           64 |           64 |           64 |xxxxxxxxxxxxx |xxxxxxxxxxxxx |xxxxxxxxxxxxx |xxxxxxxxxxxxx |           64 |           64 |           64 |xxxxxxxxxxxxx |xxxxxxxxxxxxx |xxxxxxxxxxxxx |xxxxxxxxxxxxx |           64 |           64 |           64 |
bpred_bimod.used_ras.PP                         64 |           64 |           64 |xxxxxxxxxxxxx |xxxxxxxxxxxxx |xxxxxxxxxxxxx |xxxxxxxxxxxxx |           64 |           64 |           64 |xxxxxxxxxxxxx |xxxxxxxxxxxxx |xxxxxxxxxxxxx |xxxxxxxxxxxxx |           64 |           64 |           64 |xxxxxxxxxxxxx |xxxxxxxxxxxxx |xxxxxxxxxxxxx |xxxxxxxxxxxxx |           64 |           64 |           64 |xxxxxxxxxxxxx |xxxxxxxxxxxxx |xxxxxxxxxxxxx |xxxxxxxxxxxxx |           64 |           64 |           64 |xxxxxxxxxxxxx |xxxxxxxxxxxxx |xxxxxxxxxxxxx |xxxxxxxxxxxxx |           64 |           64 |           64 |xxxxxxxxxxxxx |xxxxxxxxxxxxx |xxxxxxxxxxxxx |xxxxxxxxxxxxx |           64 |           64 |           64 |xxxxxxxxxxxxx |xxxxxxxxxxxxx |xxxxxxxxxxxxx |xxxxxxxxxxxxx |           64 |           64 |           64 |xxxxxxxxxxxxx |xxxxxxxxxxxxx |xxxxxxxxxxxxx |xxxxxxxxxxxxx |           64 |           64 |           64 |xxxxxxxxxxxxx |xxxxxxxxxxxxx |xxxxxxxxxxxxx |xxxxxxxxxxxxx |           64 |           64 |           64 |xxxxxxxxxxxxx |xxxxxxxxxxxxx |xxxxxxxxxxxxx |xxxxxxxxxxxxx |           64 |           64 |           64 |
bpred_bimod.ras_hits.PP                         64 |           64 |           64 |xxxxxxxxxxxxx |xxxxxxxxxxxxx |xxxxxxxxxxxxx |xxxxxxxxxxxxx |           64 |           64 |           64 |xxxxxxxxxxxxx |xxxxxxxxxxxxx |xxxxxxxxxxxxx |xxxxxxxxxxxxx |           64 |           64 |           64 |xxxxxxxxxxxxx |xxxxxxxxxxxxx |xxxxxxxxxxxxx |xxxxxxxxxxxxx |           64 |           64 |           64 |xxxxxxxxxxxxx |xxxxxxxxxxxxx |xxxxxxxxxxxxx |xxxxxxxxxxxxx |           64 |           64 |           64 |xxxxxxxxxxxxx |xxxxxxxxxxxxx |xxxxxxxxxxxxx |xxxxxxxxxxxxx |           64 |           64 |           64 |xxxxxxxxxxxxx |xxxxxxxxxxxxx |xxxxxxxxxxxxx |xxxxxxxxxxxxx |           64 |           64 |           64 |xxxxxxxxxxxxx |xxxxxxxxxxxxx |xxxxxxxxxxxxx |xxxxxxxxxxxxx |           64 |           64 |           64 |xxxxxxxxxxxxx |xxxxxxxxxxxxx |xxxxxxxxxxxxx |xxxxxxxxxxxxx |           64 |           64 |           64 |xxxxxxxxxxxxx |xxxxxxxxxxxxx |xxxxxxxxxxxxx |xxxxxxxxxxxxx |           64 |           64 |           64 |xxxxxxxxxxxxx |xxxxxxxxxxxxx |xxxxxxxxxxxxx |xxxxxxxxxxxxx |           64 |           64 |           64 |
bpred_bimod.ras_rate.PP                     1.0000 |       1.0000 |       1.0000 |xxxxxxxxxxxxx |xxxxxxxxxxxxx |xxxxxxxxxxxxx |xxxxxxxxxxxxx |       1.0000 |       1.0000 |       1.0000 |xxxxxxxxxxxxx |xxxxxxxxxxxxx |xxxxxxxxxxxxx |xxxxxxxxxxxxx |       1.0000 |       1.0000 |       1.0000 |xxxxxxxxxxxxx |xxxxxxxxxxxxx |xxxxxxxxxxxxx |xxxxxxxxxxxxx |       1.0000 |       1.0000 |       1.0000 |xxxxxxxxxxxxx |xxxxxxxxxxxxx |xxxxxxxxxxxxx |xxxxxxxxxxxxx |       1.0000 |       1.0000 |       1.0000 |xxxxxxxxxxxxx |xxxxxxxxxxxxx |xxxxxxxxxxxxx |xxxxxxxxxxxxx |       1.0000 |       1.0000 |       1.0000 |xxxxxxxxxxxxx |xxxxxxxxxxxxx |xxxxxxxxxxxxx |xxxxxxxxxxxxx |       1.0000 |       1.0000 |       1.0000 |xxxxxxxxxxxxx |xxxxxxxxxxxxx |xxxxxxxxxxxxx |xxxxxxxxxxxxx |       1.0000 |       1.0000 |       1.0000 |xxxxxxxxxxxxx |xxxxxxxxxxxxx |xxxxxxxxxxxxx |xxxxxxxxxxxxx |       1.0000 |       1.0000 |       1.0000 |xxxxxxxxxxxxx |xxxxxxxxxxxxx |xxxxxxxxxxxxx |xxxxxxxxxxxxx |       1.0000 |       1.0000 |       1.0000 |xxxxxxxxxxxxx |xxxxxxxxxxxxx |xxxxxxxxxxxxx |xxxxxxxxxxxxx |       1.0000 |       1.0000 |       1.0000 |
bpred_2lev.lookups                   xxxxxxxxxxxxx |xxxxxxxxxxxxx |xxxxxxxxxxxxx |        77394 |        77394 |        77394 |        77394 |xxxxxxxxxxxxx |xxxxxxxxxxxxx |xxxxxxxxxxxxx |       166134 |       166134 |       166134 |       166134 |xxxxxxxxxxxxx |xxxxxxxxxxxxx |xxxxxxxxxxxxx |       358676 |       358676 |       358676 |       358676 |xxxxxxxxxxxxx |xxxxxxxxxxxxx |xxxxxxxxxxxxx |       778856 |       778856 |       778856 |       778856 |xxxxxxxxxxxxx |xxxxxxxxxxxxx |xxxxxxxxxxxxx |      1646383 |      1646383 |      1646383 |      1646383 |xxxxxxxxxxxxx |xxxxxxxxxxxxx |xxxxxxxxxxxxx |      3512790 |      3512790 |      3512790 |      3512790 |xxxxxxxxxxxxx |xxxxxxxxxxxxx |xxxxxxxxxxxxx |      7423107 |      7423107 |      7423107 |      7423107 |xxxxxxxxxxxxx |xxxxxxxxxxxxx |xxxxxxxxxxxxx |     15553357 |     15553357 |     15553357 |     15553357 |xxxxxxxxxxxxx |xxxxxxxxxxxxx |xxxxxxxxxxxxx |     33195719 |     33195719 |     33195719 |     33195719 |xxxxxxxxxxxxx |xxxxxxxxxxxxx |xxxxxxxxxxxxx |     70047107 |     70047107 |     70047107 |     70047107 |xxxxxxxxxxxxx |xxxxxxxxxxxxx |xxxxxxxxxxxxx |    146757651 |    146757651 |    146757651 |    146757651 |
[...]
bpred_2lev.retstack_pops             xxxxxxxxxxxxx |xxxxxxxxxxxxx |xxxxxxxxxxxxx |           64 |           64 |           64 |           64 |xxxxxxxxxxxxx |xxxxxxxxxxxxx |xxxxxxxxxxxxx |           64 |           64 |           64 |           64 |xxxxxxxxxxxxx |xxxxxxxxxxxxx |xxxxxxxxxxxxx |           64 |           64 |           64 |           64 |xxxxxxxxxxxxx |xxxxxxxxxxxxx |xxxxxxxxxxxxx |           64 |           64 |           64 |           64 |xxxxxxxxxxxxx |xxxxxxxxxxxxx |xxxxxxxxxxxxx |           64 |           64 |           64 |           64 |xxxxxxxxxxxxx |xxxxxxxxxxxxx |xxxxxxxxxxxxx |           64 |           64 |           64 |           64 |xxxxxxxxxxxxx |xxxxxxxxxxxxx |xxxxxxxxxxxxx |           64 |           64 |           64 |           64 |xxxxxxxxxxxxx |xxxxxxxxxxxxx |xxxxxxxxxxxxx |           64 |           64 |           64 |           64 |xxxxxxxxxxxxx |xxxxxxxxxxxxx |xxxxxxxxxxxxx |           64 |           64 |           64 |           64 |xxxxxxxxxxxxx |xxxxxxxxxxxxx |xxxxxxxxxxxxx |           64 |           64 |           64 |           64 |xxxxxxxxxxxxx |xxxxxxxxxxxxx |xxxxxxxxxxxxx |           64 |           64 |           64 |           64 |
bpred_2lev.used_ras.PP               xxxxxxxxxxxxx |xxxxxxxxxxxxx |xxxxxxxxxxxxx |           64 |           64 |           64 |           64 |xxxxxxxxxxxxx |xxxxxxxxxxxxx |xxxxxxxxxxxxx |           64 |           64 |           64 |           64 |xxxxxxxxxxxxx |xxxxxxxxxxxxx |xxxxxxxxxxxxx |           64 |           64 |           64 |           64 |xxxxxxxxxxxxx |xxxxxxxxxxxxx |xxxxxxxxxxxxx |           64 |           64 |           64 |           64 |xxxxxxxxxxxxx |xxxxxxxxxxxxx |xxxxxxxxxxxxx |           64 |           64 |           64 |           64 |xxxxxxxxxxxxx |xxxxxxxxxxxxx |xxxxxxxxxxxxx |           64 |           64 |           64 |           64 |xxxxxxxxxxxxx |xxxxxxxxxxxxx |xxxxxxxxxxxxx |           64 |           64 |           64 |           64 |xxxxxxxxxxxxx |xxxxxxxxxxxxx |xxxxxxxxxxxxx |           64 |           64 |           64 |           64 |xxxxxxxxxxxxx |xxxxxxxxxxxxx |xxxxxxxxxxxxx |           64 |           64 |           64 |           64 |xxxxxxxxxxxxx |xxxxxxxxxxxxx |xxxxxxxxxxxxx |           64 |           64 |           64 |           64 |xxxxxxxxxxxxx |xxxxxxxxxxxxx |xxxxxxxxxxxxx |           64 |           64 |           64 |           64 |
bpred_2lev.ras_hits.PP               xxxxxxxxxxxxx |xxxxxxxxxxxxx |xxxxxxxxxxxxx |           64 |           64 |           64 |           64 |xxxxxxxxxxxxx |xxxxxxxxxxxxx |xxxxxxxxxxxxx |           64 |           64 |           64 |           64 |xxxxxxxxxxxxx |xxxxxxxxxxxxx |xxxxxxxxxxxxx |           64 |           64 |           64 |           64 |xxxxxxxxxxxxx |xxxxxxxxxxxxx |xxxxxxxxxxxxx |           64 |           64 |           64 |           64 |xxxxxxxxxxxxx |xxxxxxxxxxxxx |xxxxxxxxxxxxx |           64 |           64 |           64 |           64 |xxxxxxxxxxxxx |xxxxxxxxxxxxx |xxxxxxxxxxxxx |           64 |           64 |           64 |           64 |xxxxxxxxxxxxx |xxxxxxxxxxxxx |xxxxxxxxxxxxx |           64 |           64 |           64 |           64 |xxxxxxxxxxxxx |xxxxxxxxxxxxx |xxxxxxxxxxxxx |           64 |           64 |           64 |           64 |xxxxxxxxxxxxx |xxxxxxxxxxxxx |xxxxxxxxxxxxx |           64 |           64 |           64 |           64 |xxxxxxxxxxxxx |xxxxxxxxxxxxx |xxxxxxxxxxxxx |           64 |           64 |           64 |           64 |xxxxxxxxxxxxx |xxxxxxxxxxxxx |xxxxxxxxxxxxx |           64 |           64 |           64 |           64 |
bpred_2lev.ras_rate.PP               xxxxxxxxxxxxx |xxxxxxxxxxxxx |xxxxxxxxxxxxx |       1.0000 |       1.0000 |       1.0000 |       1.0000 |xxxxxxxxxxxxx |xxxxxxxxxxxxx |xxxxxxxxxxxxx |       1.0000 |       1.0000 |       1.0000 |       1.0000 |xxxxxxxxxxxxx |xxxxxxxxxxxxx |xxxxxxxxxxxxx |       1.0000 |       1.0000 |       1.0000 |       1.0000 |xxxxxxxxxxxxx |xxxxxxxxxxxxx |xxxxxxxxxxxxx |       1.0000 |       1.0000 |       1.0000 |       1.0000 |xxxxxxxxxxxxx |xxxxxxxxxxxxx |xxxxxxxxxxxxx |       1.0000 |       1.0000 |       1.0000 |       1.0000 |xxxxxxxxxxxxx |xxxxxxxxxxxxx |xxxxxxxxxxxxx |       1.0000 |       1.0000 |       1.0000 |       1.0000 |xxxxxxxxxxxxx |xxxxxxxxxxxxx |xxxxxxxxxxxxx |       1.0000 |       1.0000 |       1.0000 |       1.0000 |xxxxxxxxxxxxx |xxxxxxxxxxxxx |xxxxxxxxxxxxx |       1.0000 |       1.0000 |       1.0000 |       1.0000 |xxxxxxxxxxxxx |xxxxxxxxxxxxx |xxxxxxxxxxxxx |       1.0000 |       1.0000 |       1.0000 |       1.0000 |xxxxxxxxxxxxx |xxxxxxxxxxxxx |xxxxxxxxxxxxx |       1.0000 |       1.0000 |       1.0000 |       1.0000 |xxxxxxxxxxxxx |xxxxxxxxxxxxx |xxxxxxxxxxxxx |       1.0000 |       1.0000 |       1.0000 |       1.0000 |

Command list: 
	sslittle-na-sstrix-gcc -Wall -O3 -funroll-loops -finline-functions  -DRANDOM_SIZE=4096 -DOFFSET=5 -DSORT=memory_tuned_quicksort sorts/memory_tuned_quicksort2045229905.c simpleMain.c -o memory_tuned_quicksort1953034599
	sim-cache -cache:dl1 dl1:256:32:1:l -cache:dl2 dl2:131072:32:1:l -cache:il1 il1:256:32:1:l -cache:il2 dl2 memory_tuned_quicksort1953034599
	sim-cache -cache:dl1 dl1:256:32:1:l -cache:dl2 dl2:65536:32:1:l -cache:il1 il1:256:32:1:l -cache:il2 dl2 memory_tuned_quicksort1953034599
	sim-cache -cache:dl1 dl1:1:32:256:l -cache:dl2 dl2:1:32:131072:l -cache:il1 il1:1:32:256:l -cache:il2 dl2 memory_tuned_quicksort1953034599
	sim-cache -cache:dl1 dl1:1:32:256:l -cache:dl2 dl2:1:32:65536:l -cache:il1 il1:1:32:256:l -cache:il2 dl2 memory_tuned_quicksort1953034599
	sim-bpred -bpred bimod -bpred:bimod 512 memory_tuned_quicksort1953034599
	sim-bpred -bpred bimod -bpred:bimod 1024 memory_tuned_quicksort1953034599
	sim-bpred -bpred bimod -bpred:bimod 2048 memory_tuned_quicksort1953034599
	sim-bpred -bpred 2lev -bpred:2lev 1 512 10 1 memory_tuned_quicksort1953034599
	sim-bpred -bpred 2lev -bpred:2lev 1 1024 10 1 memory_tuned_quicksort1953034599
	sim-bpred -bpred 2lev -bpred:2lev 1 2048 10 1 memory_tuned_quicksort1953034599
	sim-bpred -bpred 2lev -bpred:2lev 1 4096 10 1 memory_tuned_quicksort1953034599
	sslittle-na-sstrix-gcc -Wall -O3 -funroll-loops -finline-functions  -DRANDOM_SIZE=8192 -DOFFSET=5 -DSORT=memory_tuned_quicksort sorts/memory_tuned_quicksort2045229905.c simpleMain.c -o memory_tuned_quicksort1953034599
	sim-cache -cache:dl1 dl1:256:32:1:l -cache:dl2 dl2:131072:32:1:l -cache:il1 il1:256:32:1:l -cache:il2 dl2 memory_tuned_quicksort1953034599
	sim-cache -cache:dl1 dl1:256:32:1:l -cache:dl2 dl2:65536:32:1:l -cache:il1 il1:256:32:1:l -cache:il2 dl2 memory_tuned_quicksort1953034599
	sim-cache -cache:dl1 dl1:1:32:256:l -cache:dl2 dl2:1:32:131072:l -cache:il1 il1:1:32:256:l -cache:il2 dl2 memory_tuned_quicksort1953034599
	sim-cache -cache:dl1 dl1:1:32:256:l -cache:dl2 dl2:1:32:65536:l -cache:il1 il1:1:32:256:l -cache:il2 dl2 memory_tuned_quicksort1953034599
	sim-bpred -bpred bimod -bpred:bimod 512 memory_tuned_quicksort1953034599
	sim-bpred -bpred bimod -bpred:bimod 1024 memory_tuned_quicksort1953034599
	sim-bpred -bpred bimod -bpred:bimod 2048 memory_tuned_quicksort1953034599
	sim-bpred -bpred 2lev -bpred:2lev 1 512 10 1 memory_tuned_quicksort1953034599
	sim-bpred -bpred 2lev -bpred:2lev 1 1024 10 1 memory_tuned_quicksort1953034599
	sim-bpred -bpred 2lev -bpred:2lev 1 2048 10 1 memory_tuned_quicksort1953034599
	sim-bpred -bpred 2lev -bpred:2lev 1 4096 10 1 memory_tuned_quicksort1953034599
	sslittle-na-sstrix-gcc -Wall -O3 -funroll-loops -finline-functions  -DRANDOM_SIZE=16384 -DOFFSET=5 -DSORT=memory_tuned_quicksort sorts/memory_tuned_quicksort2045229905.c simpleMain.c -o memory_tuned_quicksort1953034599
	sim-cache -cache:dl1 dl1:256:32:1:l -cache:dl2 dl2:131072:32:1:l -cache:il1 il1:256:32:1:l -cache:il2 dl2 memory_tuned_quicksort1953034599
	sim-cache -cache:dl1 dl1:256:32:1:l -cache:dl2 dl2:65536:32:1:l -cache:il1 il1:256:32:1:l -cache:il2 dl2 memory_tuned_quicksort1953034599
	sim-cache -cache:dl1 dl1:1:32:256:l -cache:dl2 dl2:1:32:131072:l -cache:il1 il1:1:32:256:l -cache:il2 dl2 memory_tuned_quicksort1953034599
	sim-cache -cache:dl1 dl1:1:32:256:l -cache:dl2 dl2:1:32:65536:l -cache:il1 il1:1:32:256:l -cache:il2 dl2 memory_tuned_quicksort1953034599
	sim-bpred -bpred bimod -bpred:bimod 512 memory_tuned_quicksort1953034599
	sim-bpred -bpred bimod -bpred:bimod 1024 memory_tuned_quicksort1953034599
	sim-bpred -bpred bimod -bpred:bimod 2048 memory_tuned_quicksort1953034599
	sim-bpred -bpred 2lev -bpred:2lev 1 512 10 1 memory_tuned_quicksort1953034599
	sim-bpred -bpred 2lev -bpred:2lev 1 1024 10 1 memory_tuned_quicksort1953034599
	sim-bpred -bpred 2lev -bpred:2lev 1 2048 10 1 memory_tuned_quicksort1953034599
	sim-bpred -bpred 2lev -bpred:2lev 1 4096 10 1 memory_tuned_quicksort1953034599
	sslittle-na-sstrix-gcc -Wall -O3 -funroll-loops -finline-functions  -DRANDOM_SIZE=32768 -DOFFSET=5 -DSORT=memory_tuned_quicksort sorts/memory_tuned_quicksort2045229905.c simpleMain.c -o memory_tuned_quicksort1953034599
	sim-cache -cache:dl1 dl1:256:32:1:l -cache:dl2 dl2:131072:32:1:l -cache:il1 il1:256:32:1:l -cache:il2 dl2 memory_tuned_quicksort1953034599
	sim-cache -cache:dl1 dl1:256:32:1:l -cache:dl2 dl2:65536:32:1:l -cache:il1 il1:256:32:1:l -cache:il2 dl2 memory_tuned_quicksort1953034599
	sim-cache -cache:dl1 dl1:1:32:256:l -cache:dl2 dl2:1:32:131072:l -cache:il1 il1:1:32:256:l -cache:il2 dl2 memory_tuned_quicksort1953034599
	sim-cache -cache:dl1 dl1:1:32:256:l -cache:dl2 dl2:1:32:65536:l -cache:il1 il1:1:32:256:l -cache:il2 dl2 memory_tuned_quicksort1953034599
	sim-bpred -bpred bimod -bpred:bimod 512 memory_tuned_quicksort1953034599
	sim-bpred -bpred bimod -bpred:bimod 1024 memory_tuned_quicksort1953034599
	sim-bpred -bpred bimod -bpred:bimod 2048 memory_tuned_quicksort1953034599
	sim-bpred -bpred 2lev -bpred:2lev 1 512 10 1 memory_tuned_quicksort1953034599
	sim-bpred -bpred 2lev -bpred:2lev 1 1024 10 1 memory_tuned_quicksort1953034599
	sim-bpred -bpred 2lev -bpred:2lev 1 2048 10 1 memory_tuned_quicksort1953034599
	sim-bpred -bpred 2lev -bpred:2lev 1 4096 10 1 memory_tuned_quicksort1953034599
	sslittle-na-sstrix-gcc -Wall -O3 -funroll-loops -finline-functions  -DRANDOM_SIZE=65536 -DOFFSET=5 -DSORT=memory_tuned_quicksort sorts/memory_tuned_quicksort2045229905.c simpleMain.c -o memory_tuned_quicksort1953034599
	sim-cache -cache:dl1 dl1:256:32:1:l -cache:dl2 dl2:131072:32:1:l -cache:il1 il1:256:32:1:l -cache:il2 dl2 memory_tuned_quicksort1953034599
	sim-cache -cache:dl1 dl1:256:32:1:l -cache:dl2 dl2:65536:32:1:l -cache:il1 il1:256:32:1:l -cache:il2 dl2 memory_tuned_quicksort1953034599
	sim-cache -cache:dl1 dl1:1:32:256:l -cache:dl2 dl2:1:32:131072:l -cache:il1 il1:1:32:256:l -cache:il2 dl2 memory_tuned_quicksort1953034599
	sim-cache -cache:dl1 dl1:1:32:256:l -cache:dl2 dl2:1:32:65536:l -cache:il1 il1:1:32:256:l -cache:il2 dl2 memory_tuned_quicksort1953034599
	sim-bpred -bpred bimod -bpred:bimod 512 memory_tuned_quicksort1953034599
	sim-bpred -bpred bimod -bpred:bimod 1024 memory_tuned_quicksort1953034599
	sim-bpred -bpred bimod -bpred:bimod 2048 memory_tuned_quicksort1953034599
	sim-bpred -bpred 2lev -bpred:2lev 1 512 10 1 memory_tuned_quicksort1953034599
	sim-bpred -bpred 2lev -bpred:2lev 1 1024 10 1 memory_tuned_quicksort1953034599
	sim-bpred -bpred 2lev -bpred:2lev 1 2048 10 1 memory_tuned_quicksort1953034599
	sim-bpred -bpred 2lev -bpred:2lev 1 4096 10 1 memory_tuned_quicksort1953034599
	sslittle-na-sstrix-gcc -Wall -O3 -funroll-loops -finline-functions  -DRANDOM_SIZE=131072 -DOFFSET=5 -DSORT=memory_tuned_quicksort sorts/memory_tuned_quicksort2045229905.c simpleMain.c -o memory_tuned_quicksort1953034599
	sim-cache -cache:dl1 dl1:256:32:1:l -cache:dl2 dl2:131072:32:1:l -cache:il1 il1:256:32:1:l -cache:il2 dl2 memory_tuned_quicksort1953034599
	sim-cache -cache:dl1 dl1:256:32:1:l -cache:dl2 dl2:65536:32:1:l -cache:il1 il1:256:32:1:l -cache:il2 dl2 memory_tuned_quicksort1953034599
	sim-cache -cache:dl1 dl1:1:32:256:l -cache:dl2 dl2:1:32:131072:l -cache:il1 il1:1:32:256:l -cache:il2 dl2 memory_tuned_quicksort1953034599
	sim-cache -cache:dl1 dl1:1:32:256:l -cache:dl2 dl2:1:32:65536:l -cache:il1 il1:1:32:256:l -cache:il2 dl2 memory_tuned_quicksort1953034599
	sim-bpred -bpred bimod -bpred:bimod 512 memory_tuned_quicksort1953034599
	sim-bpred -bpred bimod -bpred:bimod 1024 memory_tuned_quicksort1953034599
	sim-bpred -bpred bimod -bpred:bimod 2048 memory_tuned_quicksort1953034599
	sim-bpred -bpred 2lev -bpred:2lev 1 512 10 1 memory_tuned_quicksort1953034599
	sim-bpred -bpred 2lev -bpred:2lev 1 1024 10 1 memory_tuned_quicksort1953034599
	sim-bpred -bpred 2lev -bpred:2lev 1 2048 10 1 memory_tuned_quicksort1953034599
	sim-bpred -bpred 2lev -bpred:2lev 1 4096 10 1 memory_tuned_quicksort1953034599
	sslittle-na-sstrix-gcc -Wall -O3 -funroll-loops -finline-functions  -DRANDOM_SIZE=262144 -DOFFSET=5 -DSORT=memory_tuned_quicksort sorts/memory_tuned_quicksort2045229905.c simpleMain.c -o memory_tuned_quicksort1953034599
	sim-cache -cache:dl1 dl1:256:32:1:l -cache:dl2 dl2:131072:32:1:l -cache:il1 il1:256:32:1:l -cache:il2 dl2 memory_tuned_quicksort1953034599
	sim-cache -cache:dl1 dl1:256:32:1:l -cache:dl2 dl2:65536:32:1:l -cache:il1 il1:256:32:1:l -cache:il2 dl2 memory_tuned_quicksort1953034599
	sim-cache -cache:dl1 dl1:1:32:256:l -cache:dl2 dl2:1:32:131072:l -cache:il1 il1:1:32:256:l -cache:il2 dl2 memory_tuned_quicksort1953034599
	sim-cache -cache:dl1 dl1:1:32:256:l -cache:dl2 dl2:1:32:65536:l -cache:il1 il1:1:32:256:l -cache:il2 dl2 memory_tuned_quicksort1953034599
	sim-bpred -bpred bimod -bpred:bimod 512 memory_tuned_quicksort1953034599
	sim-bpred -bpred bimod -bpred:bimod 1024 memory_tuned_quicksort1953034599
	sim-bpred -bpred bimod -bpred:bimod 2048 memory_tuned_quicksort1953034599
	sim-bpred -bpred 2lev -bpred:2lev 1 512 10 1 memory_tuned_quicksort1953034599
	sim-bpred -bpred 2lev -bpred:2lev 1 1024 10 1 memory_tuned_quicksort1953034599
	sim-bpred -bpred 2lev -bpred:2lev 1 2048 10 1 memory_tuned_quicksort1953034599
	sim-bpred -bpred 2lev -bpred:2lev 1 4096 10 1 memory_tuned_quicksort1953034599
	sslittle-na-sstrix-gcc -Wall -O3 -funroll-loops -finline-functions  -DRANDOM_SIZE=524288 -DOFFSET=5 -DSORT=memory_tuned_quicksort sorts/memory_tuned_quicksort2045229905.c simpleMain.c -o memory_tuned_quicksort1953034599
	sim-cache -cache:dl1 dl1:256:32:1:l -cache:dl2 dl2:131072:32:1:l -cache:il1 il1:256:32:1:l -cache:il2 dl2 memory_tuned_quicksort1953034599
	sim-cache -cache:dl1 dl1:256:32:1:l -cache:dl2 dl2:65536:32:1:l -cache:il1 il1:256:32:1:l -cache:il2 dl2 memory_tuned_quicksort1953034599
	sim-cache -cache:dl1 dl1:1:32:256:l -cache:dl2 dl2:1:32:131072:l -cache:il1 il1:1:32:256:l -cache:il2 dl2 memory_tuned_quicksort1953034599
	sim-cache -cache:dl1 dl1:1:32:256:l -cache:dl2 dl2:1:32:65536:l -cache:il1 il1:1:32:256:l -cache:il2 dl2 memory_tuned_quicksort1953034599
	sim-bpred -bpred bimod -bpred:bimod 512 memory_tuned_quicksort1953034599
	sim-bpred -bpred bimod -bpred:bimod 1024 memory_tuned_quicksort1953034599
	sim-bpred -bpred bimod -bpred:bimod 2048 memory_tuned_quicksort1953034599
	sim-bpred -bpred 2lev -bpred:2lev 1 512 10 1 memory_tuned_quicksort1953034599
	sim-bpred -bpred 2lev -bpred:2lev 1 1024 10 1 memory_tuned_quicksort1953034599
	sim-bpred -bpred 2lev -bpred:2lev 1 2048 10 1 memory_tuned_quicksort1953034599
	sim-bpred -bpred 2lev -bpred:2lev 1 4096 10 1 memory_tuned_quicksort1953034599
	sslittle-na-sstrix-gcc -Wall -O3 -funroll-loops -finline-functions  -DRANDOM_SIZE=1048576 -DOFFSET=5 -DSORT=memory_tuned_quicksort sorts/memory_tuned_quicksort2045229905.c simpleMain.c -o memory_tuned_quicksort1953034599
	sim-cache -cache:dl1 dl1:256:32:1:l -cache:dl2 dl2:131072:32:1:l -cache:il1 il1:256:32:1:l -cache:il2 dl2 memory_tuned_quicksort1953034599
	sim-cache -cache:dl1 dl1:256:32:1:l -cache:dl2 dl2:65536:32:1:l -cache:il1 il1:256:32:1:l -cache:il2 dl2 memory_tuned_quicksort1953034599
	sim-cache -cache:dl1 dl1:1:32:256:l -cache:dl2 dl2:1:32:131072:l -cache:il1 il1:1:32:256:l -cache:il2 dl2 memory_tuned_quicksort1953034599
	sim-cache -cache:dl1 dl1:1:32:256:l -cache:dl2 dl2:1:32:65536:l -cache:il1 il1:1:32:256:l -cache:il2 dl2 memory_tuned_quicksort1953034599
	sim-bpred -bpred bimod -bpred:bimod 512 memory_tuned_quicksort1953034599
	sim-bpred -bpred bimod -bpred:bimod 1024 memory_tuned_quicksort1953034599
	sim-bpred -bpred bimod -bpred:bimod 2048 memory_tuned_quicksort1953034599
	sim-bpred -bpred 2lev -bpred:2lev 1 512 10 1 memory_tuned_quicksort1953034599
	sim-bpred -bpred 2lev -bpred:2lev 1 1024 10 1 memory_tuned_quicksort1953034599
	sim-bpred -bpred 2lev -bpred:2lev 1 2048 10 1 memory_tuned_quicksort1953034599
	sim-bpred -bpred 2lev -bpred:2lev 1 4096 10 1 memory_tuned_quicksort1953034599
	sslittle-na-sstrix-gcc -Wall -O3 -funroll-loops -finline-functions  -DRANDOM_SIZE=2097152 -DOFFSET=5 -DSORT=memory_tuned_quicksort sorts/memory_tuned_quicksort2045229905.c simpleMain.c -o memory_tuned_quicksort1953034599
	sim-cache -cache:dl1 dl1:256:32:1:l -cache:dl2 dl2:131072:32:1:l -cache:il1 il1:256:32:1:l -cache:il2 dl2 memory_tuned_quicksort1953034599
	sim-cache -cache:dl1 dl1:256:32:1:l -cache:dl2 dl2:65536:32:1:l -cache:il1 il1:256:32:1:l -cache:il2 dl2 memory_tuned_quicksort1953034599
	sim-cache -cache:dl1 dl1:1:32:256:l -cache:dl2 dl2:1:32:131072:l -cache:il1 il1:1:32:256:l -cache:il2 dl2 memory_tuned_quicksort1953034599
	sim-cache -cache:dl1 dl1:1:32:256:l -cache:dl2 dl2:1:32:65536:l -cache:il1 il1:1:32:256:l -cache:il2 dl2 memory_tuned_quicksort1953034599
	sim-bpred -bpred bimod -bpred:bimod 512 memory_tuned_quicksort1953034599
	sim-bpred -bpred bimod -bpred:bimod 1024 memory_tuned_quicksort1953034599
	sim-bpred -bpred bimod -bpred:bimod 2048 memory_tuned_quicksort1953034599
	sim-bpred -bpred 2lev -bpred:2lev 1 512 10 1 memory_tuned_quicksort1953034599
	sim-bpred -bpred 2lev -bpred:2lev 1 1024 10 1 memory_tuned_quicksort1953034599
	sim-bpred -bpred 2lev -bpred:2lev 1 2048 10 1 memory_tuned_quicksort1953034599
	sim-bpred -bpred 2lev -bpred:2lev 1 4096 10 1 memory_tuned_quicksort1953034599
	sslittle-na-sstrix-gcc -Wall -O3 -funroll-loops -finline-functions  -DRANDOM_SIZE=4194304 -DOFFSET=5 -DSORT=memory_tuned_quicksort sorts/memory_tuned_quicksort2045229905.c simpleMain.c -o memory_tuned_quicksort1953034599
	sim-cache -cache:dl1 dl1:256:32:1:l -cache:dl2 dl2:131072:32:1:l -cache:il1 il1:256:32:1:l -cache:il2 dl2 memory_tuned_quicksort1953034599
	sim-cache -cache:dl1 dl1:256:32:1:l -cache:dl2 dl2:65536:32:1:l -cache:il1 il1:256:32:1:l -cache:il2 dl2 memory_tuned_quicksort1953034599
	sim-cache -cache:dl1 dl1:1:32:256:l -cache:dl2 dl2:1:32:131072:l -cache:il1 il1:1:32:256:l -cache:il2 dl2 memory_tuned_quicksort1953034599
	sim-cache -cache:dl1 dl1:1:32:256:l -cache:dl2 dl2:1:32:65536:l -cache:il1 il1:1:32:256:l -cache:il2 dl2 memory_tuned_quicksort1953034599
	sim-bpred -bpred bimod -bpred:bimod 512 memory_tuned_quicksort1953034599
	sim-bpred -bpred bimod -bpred:bimod 1024 memory_tuned_quicksort1953034599
	sim-bpred -bpred bimod -bpred:bimod 2048 memory_tuned_quicksort1953034599
	sim-bpred -bpred 2lev -bpred:2lev 1 512 10 1 memory_tuned_quicksort1953034599
	sim-bpred -bpred 2lev -bpred:2lev 1 1024 10 1 memory_tuned_quicksort1953034599
	sim-bpred -bpred 2lev -bpred:2lev 1 2048 10 1 memory_tuned_quicksort1953034599
	sim-bpred -bpred 2lev -bpred:2lev 1 4096 10 1 memory_tuned_quicksort1953034599
