Tue Jun 14 07:15:59 2005
Run as: "./simple -c random.org0 -o 0 memory_tuned_radixsort"
-------------------------------------------------------------------------------------------------
sim-cache                                     4096 |         4096 |         4096 |         4096 |         8192 |         8192 |         8192 |         8192 |        16384 |        16384 |        16384 |        16384 |        32768 |        32768 |        32768 |        32768 |        65536 |        65536 |        65536 |        65536 |       131072 |       131072 |       131072 |       131072 |       262144 |       262144 |       262144 |       262144 |       524288 |       524288 |       524288 |       524288 |      1048576 |      1048576 |      1048576 |      1048576 |      2097152 |      2097152 |      2097152 |      2097152 |      4194304 |      4194304 |      4194304 |      4194304 |
-cache:dl1 dl1:256:32:1:l -cache:dl2 dl2:131072:32:1:l -cache:il1 il1:256:32:1:l -cache:il2 dl2
-cache:dl1 dl1:256:32:1:l -cache:dl2 dl2:65536:32:1:l -cache:il1 il1:256:32:1:l -cache:il2 dl2
-cache:dl1 dl1:1:32:256:l -cache:dl2 dl2:1:32:131072:l -cache:il1 il1:1:32:256:l -cache:il2 dl2
-cache:dl1 dl1:1:32:256:l -cache:dl2 dl2:1:32:65536:l -cache:il1 il1:1:32:256:l -cache:il2 dl2
-------------------------------------------------------------------------------------------------
sim_num_insn                                378639 |       378639 |       378639 |       378639 |       744349 |       744349 |       744349 |       744349 |      1475487 |      1475487 |      1475487 |      1475487 |      2937760 |      2937760 |      2937760 |      2937760 |      5862304 |      5862304 |      5862304 |      5862304 |     11711393 |     11711393 |     11711393 |     11711393 |     23409569 |     23409569 |     23409569 |     23409569 |     46805921 |     46805921 |     46805921 |     46805921 |     93611101 |     93611101 |     93611101 |     93611101 |    187205733 |    187205733 |    187205733 |    187205733 |    374394989 |    374394989 |    374394989 |    374394989 |
sim_num_refs                                138909 |       138909 |       138909 |       138909 |       270025 |       270025 |       270025 |       270025 |       532169 |       532169 |       532169 |       532169 |      1056457 |      1056457 |      1056457 |      1056457 |      2105033 |      2105033 |      2105033 |      2105033 |      4202185 |      4202185 |      4202185 |      4202185 |      8396489 |      8396489 |      8396489 |      8396489 |     16785097 |     16785097 |     16785097 |     16785097 |     33571575 |     33571575 |     33571575 |     33571575 |     67132151 |     67132151 |     67132151 |     67132151 |    134253303 |    134253303 |    134253303 |    134253303 |
sim_elapsed_time                                 1 |            1 |           10 |            5 |            1 |            1 |           15 |            8 |            1 |            1 |           26 |           13 |            1 |            1 |           46 |           23 |            2 |            1 |           85 |           42 |            4 |            3 |          156 |           70 |            8 |            7 |          267 |           94 |           15 |           16 |          358 |          104 |           31 |           30 |          374 |          119 |           61 |           61 |          409 |          153 |          123 |          122 |          478 |          222 |
sim_inst_rate                          378639.0000 |  378639.0000 |   37863.9000 |   75727.8000 |  744349.0000 |  744349.0000 |   49623.2667 |   93043.6250 | 1475487.0000 | 1475487.0000 |   56749.5000 |  113499.0000 | 2937760.0000 | 2937760.0000 |   63864.3478 |  127728.6957 | 2931152.0000 | 5862304.0000 |   68968.2824 |  139578.6667 | 2927848.2500 | 3903797.6667 |   75073.0321 |  167305.6143 | 2926196.1250 | 3344224.1429 |   87676.2884 |  249037.9681 | 3120394.7333 | 2925370.0625 |  130742.7961 |  450056.9327 | 3019712.9355 | 3120370.0333 |  250297.0615 |  786647.9076 | 3068946.4426 | 3068946.4426 |  457715.7286 | 1223566.8824 | 3043861.6992 | 3068811.3852 |  783253.1151 | 1686463.9144 |
il1.accesses                                378639 |       378639 |       378639 |       378639 |       744349 |       744349 |       744349 |       744349 |      1475487 |      1475487 |      1475487 |      1475487 |      2937760 |      2937760 |      2937760 |      2937760 |      5862304 |      5862304 |      5862304 |      5862304 |     11711393 |     11711393 |     11711393 |     11711393 |     23409569 |     23409569 |     23409569 |     23409569 |     46805921 |     46805921 |     46805921 |     46805921 |     93611101 |     93611101 |     93611101 |     93611101 |    187205733 |    187205733 |    187205733 |    187205733 |    374394989 |    374394989 |    374394989 |    374394989 |
il1.hits                                    378195 |       378195 |       378244 |       378244 |       743886 |       743886 |       743964 |       743964 |      1475009 |      1475009 |      1475065 |      1475065 |      2937297 |      2937297 |      2937374 |      2937374 |      5861841 |      5861841 |      5861918 |      5861918 |     11710931 |     11710931 |     11711008 |     11711008 |     23409107 |     23409107 |     23409184 |     23409184 |     46805459 |     46805459 |     46805536 |     46805536 |     93610583 |     93610583 |     93610648 |     93610648 |    187205215 |    187205215 |    187205280 |    187205280 |    374394471 |    374394471 |    374394536 |    374394536 |
il1.misses                                     444 |          444 |          395 |          395 |          463 |          463 |          385 |          385 |          478 |          478 |          422 |          422 |          463 |          463 |          386 |          386 |          463 |          463 |          386 |          386 |          462 |          462 |          385 |          385 |          462 |          462 |          385 |          385 |          462 |          462 |          385 |          385 |          518 |          518 |          453 |          453 |          518 |          518 |          453 |          453 |          518 |          518 |          453 |          453 |
il1.replacements                               241 |          241 |          139 |          139 |          256 |          256 |          129 |          129 |          270 |          270 |          166 |          166 |          257 |          257 |          130 |          130 |          257 |          257 |          130 |          130 |          257 |          257 |          129 |          129 |          257 |          257 |          129 |          129 |          257 |          257 |          129 |          129 |          301 |          301 |          197 |          197 |          301 |          301 |          197 |          197 |          301 |          301 |          197 |          197 |
il1.writebacks                                   0 |            0 |            0 |            0 |            0 |            0 |            0 |            0 |            0 |            0 |            0 |            0 |            0 |            0 |            0 |            0 |            0 |            0 |            0 |            0 |            0 |            0 |            0 |            0 |            0 |            0 |            0 |            0 |            0 |            0 |            0 |            0 |            0 |            0 |            0 |            0 |            0 |            0 |            0 |            0 |            0 |            0 |            0 |            0 |
il1.invalidations                                0 |            0 |            0 |            0 |            0 |            0 |            0 |            0 |            0 |            0 |            0 |            0 |            0 |            0 |            0 |            0 |            0 |            0 |            0 |            0 |            0 |            0 |            0 |            0 |            0 |            0 |            0 |            0 |            0 |            0 |            0 |            0 |            0 |            0 |            0 |            0 |            0 |            0 |            0 |            0 |            0 |            0 |            0 |            0 |
il1.miss_rate                               0.0012 |       0.0012 |       0.0010 |       0.0010 |       0.0006 |       0.0006 |       0.0005 |       0.0005 |       0.0003 |       0.0003 |       0.0003 |       0.0003 |       0.0002 |       0.0002 |       0.0001 |       0.0001 |       0.0001 |       0.0001 |       0.0001 |       0.0001 |       0.0000 |       0.0000 |       0.0000 |       0.0000 |       0.0000 |       0.0000 |       0.0000 |       0.0000 |       0.0000 |       0.0000 |       0.0000 |       0.0000 |       0.0000 |       0.0000 |       0.0000 |       0.0000 |       0.0000 |       0.0000 |       0.0000 |       0.0000 |       0.0000 |       0.0000 |       0.0000 |       0.0000 |
il1.repl_rate                               0.0006 |       0.0006 |       0.0004 |       0.0004 |       0.0003 |       0.0003 |       0.0002 |       0.0002 |       0.0002 |       0.0002 |       0.0001 |       0.0001 |       0.0001 |       0.0001 |       0.0000 |       0.0000 |       0.0000 |       0.0000 |       0.0000 |       0.0000 |       0.0000 |       0.0000 |       0.0000 |       0.0000 |       0.0000 |       0.0000 |       0.0000 |       0.0000 |       0.0000 |       0.0000 |       0.0000 |       0.0000 |       0.0000 |       0.0000 |       0.0000 |       0.0000 |       0.0000 |       0.0000 |       0.0000 |       0.0000 |       0.0000 |       0.0000 |       0.0000 |       0.0000 |
il1.wb_rate                                 0.0000 |       0.0000 |       0.0000 |       0.0000 |       0.0000 |       0.0000 |       0.0000 |       0.0000 |       0.0000 |       0.0000 |       0.0000 |       0.0000 |       0.0000 |       0.0000 |       0.0000 |       0.0000 |       0.0000 |       0.0000 |       0.0000 |       0.0000 |       0.0000 |       0.0000 |       0.0000 |       0.0000 |       0.0000 |       0.0000 |       0.0000 |       0.0000 |       0.0000 |       0.0000 |       0.0000 |       0.0000 |       0.0000 |       0.0000 |       0.0000 |       0.0000 |       0.0000 |       0.0000 |       0.0000 |       0.0000 |       0.0000 |       0.0000 |       0.0000 |       0.0000 |
il1.inv_rate                                0.0000 |       0.0000 |       0.0000 |       0.0000 |       0.0000 |       0.0000 |       0.0000 |       0.0000 |       0.0000 |       0.0000 |       0.0000 |       0.0000 |       0.0000 |       0.0000 |       0.0000 |       0.0000 |       0.0000 |       0.0000 |       0.0000 |       0.0000 |       0.0000 |       0.0000 |       0.0000 |       0.0000 |       0.0000 |       0.0000 |       0.0000 |       0.0000 |       0.0000 |       0.0000 |       0.0000 |       0.0000 |       0.0000 |       0.0000 |       0.0000 |       0.0000 |       0.0000 |       0.0000 |       0.0000 |       0.0000 |       0.0000 |       0.0000 |       0.0000 |       0.0000 |
dl1.accesses                                155367 |       155367 |       155367 |       155367 |       302867 |       302867 |       302867 |       302867 |       597779 |       597779 |       597779 |       597779 |      1187603 |      1187603 |      1187603 |      1187603 |      2367251 |      2367251 |      2367251 |      2367251 |      4726547 |      4726547 |      4726547 |      4726547 |      9445139 |      9445139 |      9445139 |      9445139 |     18882323 |     18882323 |     18882323 |     18882323 |     37765953 |     37765953 |     37765953 |     37765953 |     75520833 |     75520833 |     75520833 |     75520833 |    151030593 |    151030593 |    151030593 |    151030593 |
dl1.hits                                    138998 |       138998 |       143987 |       143987 |       269228 |       269228 |       280766 |       280766 |       531714 |       531714 |       554217 |       554217 |      1053134 |      1053134 |      1101370 |      1101370 |      2097544 |      2097544 |      2195285 |      2195285 |      4157861 |      4157861 |      4383573 |      4383573 |      8261690 |      8261690 |      8759311 |      8759311 |     16458568 |     16458568 |     17512165 |     17512165 |     33159002 |     33159002 |     35024423 |     35024423 |     66664956 |     66664956 |     70038406 |     70038406 |    133657701 |    133657701 |    140062060 |    140062060 |
dl1.misses                                   16369 |        16369 |        11380 |        11380 |        33639 |        33639 |        22101 |        22101 |        66065 |        66065 |        43562 |        43562 |       134469 |       134469 |        86233 |        86233 |       269707 |       269707 |       171966 |       171966 |       568686 |       568686 |       342974 |       342974 |      1183449 |      1183449 |       685828 |       685828 |      2423755 |      2423755 |      1370158 |      1370158 |      4606951 |      4606951 |      2741530 |      2741530 |      8855877 |      8855877 |      5482427 |      5482427 |     17372892 |     17372892 |     10968533 |     10968533 |
dl1.replacements                             16113 |        16113 |        11124 |        11124 |        33383 |        33383 |        21845 |        21845 |        65809 |        65809 |        43306 |        43306 |       134213 |       134213 |        85977 |        85977 |       269451 |       269451 |       171710 |       171710 |       568430 |       568430 |       342718 |       342718 |      1183193 |      1183193 |       685572 |       685572 |      2423499 |      2423499 |      1369902 |      1369902 |      4606695 |      4606695 |      2741274 |      2741274 |      8855621 |      8855621 |      5482171 |      5482171 |     17372636 |     17372636 |     10968277 |     10968277 |
dl1.writebacks                               13476 |        13476 |         8610 |         8610 |        27990 |        27990 |        16753 |        16753 |        54876 |        54876 |        33087 |        33087 |       112282 |       112282 |        65516 |        65516 |       225670 |       225670 |       130768 |       130768 |       480726 |       480726 |       260816 |       260816 |      1007833 |      1007833 |       521751 |       521751 |      2072525 |      2072525 |      1042239 |      1042239 |      3904532 |      3904532 |      2085544 |      2085544 |      7450959 |      7450959 |      4171081 |      4171081 |     14563905 |     14563905 |      8346466 |      8346466 |
dl1.invalidations                                0 |            0 |            0 |            0 |            0 |            0 |            0 |            0 |            0 |            0 |            0 |            0 |            0 |            0 |            0 |            0 |            0 |            0 |            0 |            0 |            0 |            0 |            0 |            0 |            0 |            0 |            0 |            0 |            0 |            0 |            0 |            0 |            0 |            0 |            0 |            0 |            0 |            0 |            0 |            0 |            0 |            0 |            0 |            0 |
dl1.miss_rate                               0.1054 |       0.1054 |       0.0732 |       0.0732 |       0.1111 |       0.1111 |       0.0730 |       0.0730 |       0.1105 |       0.1105 |       0.0729 |       0.0729 |       0.1132 |       0.1132 |       0.0726 |       0.0726 |       0.1139 |       0.1139 |       0.0726 |       0.0726 |       0.1203 |       0.1203 |       0.0726 |       0.0726 |       0.1253 |       0.1253 |       0.0726 |       0.0726 |       0.1284 |       0.1284 |       0.0726 |       0.0726 |       0.1220 |       0.1220 |       0.0726 |       0.0726 |       0.1173 |       0.1173 |       0.0726 |       0.0726 |       0.1150 |       0.1150 |       0.0726 |       0.0726 |
dl1.repl_rate                               0.1037 |       0.1037 |       0.0716 |       0.0716 |       0.1102 |       0.1102 |       0.0721 |       0.0721 |       0.1101 |       0.1101 |       0.0724 |       0.0724 |       0.1130 |       0.1130 |       0.0724 |       0.0724 |       0.1138 |       0.1138 |       0.0725 |       0.0725 |       0.1203 |       0.1203 |       0.0725 |       0.0725 |       0.1253 |       0.1253 |       0.0726 |       0.0726 |       0.1283 |       0.1283 |       0.0725 |       0.0725 |       0.1220 |       0.1220 |       0.0726 |       0.0726 |       0.1173 |       0.1173 |       0.0726 |       0.0726 |       0.1150 |       0.1150 |       0.0726 |       0.0726 |
dl1.wb_rate                                 0.0867 |       0.0867 |       0.0554 |       0.0554 |       0.0924 |       0.0924 |       0.0553 |       0.0553 |       0.0918 |       0.0918 |       0.0553 |       0.0553 |       0.0945 |       0.0945 |       0.0552 |       0.0552 |       0.0953 |       0.0953 |       0.0552 |       0.0552 |       0.1017 |       0.1017 |       0.0552 |       0.0552 |       0.1067 |       0.1067 |       0.0552 |       0.0552 |       0.1098 |       0.1098 |       0.0552 |       0.0552 |       0.1034 |       0.1034 |       0.0552 |       0.0552 |       0.0987 |       0.0987 |       0.0552 |       0.0552 |       0.0964 |       0.0964 |       0.0553 |       0.0553 |
dl1.inv_rate                                0.0000 |       0.0000 |       0.0000 |       0.0000 |       0.0000 |       0.0000 |       0.0000 |       0.0000 |       0.0000 |       0.0000 |       0.0000 |       0.0000 |       0.0000 |       0.0000 |       0.0000 |       0.0000 |       0.0000 |       0.0000 |       0.0000 |       0.0000 |       0.0000 |       0.0000 |       0.0000 |       0.0000 |       0.0000 |       0.0000 |       0.0000 |       0.0000 |       0.0000 |       0.0000 |       0.0000 |       0.0000 |       0.0000 |       0.0000 |       0.0000 |       0.0000 |       0.0000 |       0.0000 |       0.0000 |       0.0000 |       0.0000 |       0.0000 |       0.0000 |       0.0000 |
dl2.accesses                                 30289 |        30289 |        20385 |        20385 |        62092 |        62092 |        39239 |        39239 |       121419 |       121419 |        77071 |        77071 |       247214 |       247214 |       152135 |       152135 |       495840 |       495840 |       303120 |       303120 |      1049874 |      1049874 |       604175 |       604175 |      2191744 |      2191744 |      1207964 |      1207964 |      4496742 |      4496742 |      2412782 |      2412782 |      8512001 |      8512001 |      4827527 |      4827527 |     16307354 |     16307354 |      9653961 |      9653961 |     31937315 |     31937315 |     19315452 |     19315452 |
dl2.hits                                     28383 |        28383 |        18492 |        18492 |        59161 |        59161 |        36332 |        36332 |       116428 |       116428 |        72111 |        72111 |       238135 |       238135 |       143083 |       143083 |       478568 |       478568 |       285876 |       285876 |      1016218 |      1016218 |       570548 |       570548 |      2125320 |      2113277 |      1141569 |      1139231 |      4352728 |      4048765 |      2277954 |      1815430 |      7705813 |      7221597 |      3633859 |      3540613 |     13764663 |     13639535 |      7082101 |      7041365 |     26665107 |     26502939 |     14092411 |     14073255 |
dl2.misses                                    1906 |         1906 |         1893 |         1893 |         2931 |         2931 |         2907 |         2907 |         4991 |         4991 |         4960 |         4960 |         9079 |         9079 |         9052 |         9052 |        17272 |        17272 |        17244 |        17244 |        33656 |        33656 |        33627 |        33627 |        66424 |        78467 |        66395 |        68733 |       144014 |       447977 |       134828 |       597352 |       806188 |      1290404 |      1193668 |      1286914 |      2542691 |      2667819 |      2571860 |      2612596 |      5272208 |      5434376 |      5223041 |      5242197 |
dl2.replacements                               228 |          228 |            0 |            0 |          239 |          239 |            0 |            0 |          271 |          271 |            0 |            0 |          264 |          264 |            0 |            0 |          265 |          265 |            0 |            0 |          266 |          266 |            0 |            0 |          266 |        14045 |            0 |         3197 |        14056 |       382441 |         3756 |       531816 |       675116 |      1224868 |      1062596 |      1221378 |      2411619 |      2602283 |      2440788 |      2547060 |      5141136 |      5368840 |      5091969 |      5176661 |
dl2.writebacks                                 151 |          151 |            0 |            0 |          148 |          148 |            0 |            0 |          175 |          175 |            0 |            0 |          170 |          170 |            0 |            0 |          170 |          170 |            0 |            0 |          170 |          170 |            0 |            0 |          170 |        10585 |            0 |         2973 |        10565 |       300429 |         3532 |       296240 |       596138 |       651595 |       591911 |       624725 |      1295377 |      1359416 |      1248074 |      1280933 |      2654919 |      2805882 |      2560357 |      2593302 |
dl2.invalidations                                0 |            0 |            0 |            0 |            0 |            0 |            0 |            0 |            0 |            0 |            0 |            0 |            0 |            0 |            0 |            0 |            0 |            0 |            0 |            0 |            0 |            0 |            0 |            0 |            0 |            0 |            0 |            0 |            0 |            0 |            0 |            0 |            0 |            0 |            0 |            0 |            0 |            0 |            0 |            0 |            0 |            0 |            0 |            0 |
dl2.miss_rate                               0.0629 |       0.0629 |       0.0929 |       0.0929 |       0.0472 |       0.0472 |       0.0741 |       0.0741 |       0.0411 |       0.0411 |       0.0644 |       0.0644 |       0.0367 |       0.0367 |       0.0595 |       0.0595 |       0.0348 |       0.0348 |       0.0569 |       0.0569 |       0.0321 |       0.0321 |       0.0557 |       0.0557 |       0.0303 |       0.0358 |       0.0550 |       0.0569 |       0.0320 |       0.0996 |       0.0559 |       0.2476 |       0.0947 |       0.1516 |       0.2473 |       0.2666 |       0.1559 |       0.1636 |       0.2664 |       0.2706 |       0.1651 |       0.1702 |       0.2704 |       0.2714 |
dl2.repl_rate                               0.0075 |       0.0075 |       0.0000 |       0.0000 |       0.0038 |       0.0038 |       0.0000 |       0.0000 |       0.0022 |       0.0022 |       0.0000 |       0.0000 |       0.0011 |       0.0011 |       0.0000 |       0.0000 |       0.0005 |       0.0005 |       0.0000 |       0.0000 |       0.0003 |       0.0003 |       0.0000 |       0.0000 |       0.0001 |       0.0064 |       0.0000 |       0.0026 |       0.0031 |       0.0850 |       0.0016 |       0.2204 |       0.0793 |       0.1439 |       0.2201 |       0.2530 |       0.1479 |       0.1596 |       0.2528 |       0.2638 |       0.1610 |       0.1681 |       0.2636 |       0.2680 |
dl2.wb_rate                                 0.0050 |       0.0050 |       0.0000 |       0.0000 |       0.0024 |       0.0024 |       0.0000 |       0.0000 |       0.0014 |       0.0014 |       0.0000 |       0.0000 |       0.0007 |       0.0007 |       0.0000 |       0.0000 |       0.0003 |       0.0003 |       0.0000 |       0.0000 |       0.0002 |       0.0002 |       0.0000 |       0.0000 |       0.0001 |       0.0048 |       0.0000 |       0.0025 |       0.0023 |       0.0668 |       0.0015 |       0.1228 |       0.0700 |       0.0766 |       0.1226 |       0.1294 |       0.0794 |       0.0834 |       0.1293 |       0.1327 |       0.0831 |       0.0879 |       0.1326 |       0.1343 |
dl2.inv_rate                                0.0000 |       0.0000 |       0.0000 |       0.0000 |       0.0000 |       0.0000 |       0.0000 |       0.0000 |       0.0000 |       0.0000 |       0.0000 |       0.0000 |       0.0000 |       0.0000 |       0.0000 |       0.0000 |       0.0000 |       0.0000 |       0.0000 |       0.0000 |       0.0000 |       0.0000 |       0.0000 |       0.0000 |       0.0000 |       0.0000 |       0.0000 |       0.0000 |       0.0000 |       0.0000 |       0.0000 |       0.0000 |       0.0000 |       0.0000 |       0.0000 |       0.0000 |       0.0000 |       0.0000 |       0.0000 |       0.0000 |       0.0000 |       0.0000 |       0.0000 |       0.0000 |
itlb.accesses                               378639 |       378639 |       378639 |       378639 |       744349 |       744349 |       744349 |       744349 |      1475487 |      1475487 |      1475487 |      1475487 |      2937760 |      2937760 |      2937760 |      2937760 |      5862304 |      5862304 |      5862304 |      5862304 |     11711393 |     11711393 |     11711393 |     11711393 |     23409569 |     23409569 |     23409569 |     23409569 |     46805921 |     46805921 |     46805921 |     46805921 |     93611101 |     93611101 |     93611101 |     93611101 |    187205733 |    187205733 |    187205733 |    187205733 |    374394989 |    374394989 |    374394989 |    374394989 |
itlb.hits                                   378629 |       378629 |       378629 |       378629 |       744339 |       744339 |       744339 |       744339 |      1475477 |      1475477 |      1475477 |      1475477 |      2937750 |      2937750 |      2937750 |      2937750 |      5862294 |      5862294 |      5862294 |      5862294 |     11711383 |     11711383 |     11711383 |     11711383 |     23409559 |     23409559 |     23409559 |     23409559 |     46805911 |     46805911 |     46805911 |     46805911 |     93611091 |     93611091 |     93611091 |     93611091 |    187205723 |    187205723 |    187205723 |    187205723 |    374394979 |    374394979 |    374394979 |    374394979 |
itlb.misses                                     10 |           10 |           10 |           10 |           10 |           10 |           10 |           10 |           10 |           10 |           10 |           10 |           10 |           10 |           10 |           10 |           10 |           10 |           10 |           10 |           10 |           10 |           10 |           10 |           10 |           10 |           10 |           10 |           10 |           10 |           10 |           10 |           10 |           10 |           10 |           10 |           10 |           10 |           10 |           10 |           10 |           10 |           10 |           10 |
itlb.replacements                                0 |            0 |            0 |            0 |            0 |            0 |            0 |            0 |            0 |            0 |            0 |            0 |            0 |            0 |            0 |            0 |            0 |            0 |            0 |            0 |            0 |            0 |            0 |            0 |            0 |            0 |            0 |            0 |            0 |            0 |            0 |            0 |            0 |            0 |            0 |            0 |            0 |            0 |            0 |            0 |            0 |            0 |            0 |            0 |
itlb.writebacks                                  0 |            0 |            0 |            0 |            0 |            0 |            0 |            0 |            0 |            0 |            0 |            0 |            0 |            0 |            0 |            0 |            0 |            0 |            0 |            0 |            0 |            0 |            0 |            0 |            0 |            0 |            0 |            0 |            0 |            0 |            0 |            0 |            0 |            0 |            0 |            0 |            0 |            0 |            0 |            0 |            0 |            0 |            0 |            0 |
itlb.invalidations                               0 |            0 |            0 |            0 |            0 |            0 |            0 |            0 |            0 |            0 |            0 |            0 |            0 |            0 |            0 |            0 |            0 |            0 |            0 |            0 |            0 |            0 |            0 |            0 |            0 |            0 |            0 |            0 |            0 |            0 |            0 |            0 |            0 |            0 |            0 |            0 |            0 |            0 |            0 |            0 |            0 |            0 |            0 |            0 |
itlb.miss_rate                              0.0000 |       0.0000 |       0.0000 |       0.0000 |       0.0000 |       0.0000 |       0.0000 |       0.0000 |       0.0000 |       0.0000 |       0.0000 |       0.0000 |       0.0000 |       0.0000 |       0.0000 |       0.0000 |       0.0000 |       0.0000 |       0.0000 |       0.0000 |       0.0000 |       0.0000 |       0.0000 |       0.0000 |       0.0000 |       0.0000 |       0.0000 |       0.0000 |       0.0000 |       0.0000 |       0.0000 |       0.0000 |       0.0000 |       0.0000 |       0.0000 |       0.0000 |       0.0000 |       0.0000 |       0.0000 |       0.0000 |       0.0000 |       0.0000 |       0.0000 |       0.0000 |
itlb.repl_rate                              0.0000 |       0.0000 |       0.0000 |       0.0000 |       0.0000 |       0.0000 |       0.0000 |       0.0000 |       0.0000 |       0.0000 |       0.0000 |       0.0000 |       0.0000 |       0.0000 |       0.0000 |       0.0000 |       0.0000 |       0.0000 |       0.0000 |       0.0000 |       0.0000 |       0.0000 |       0.0000 |       0.0000 |       0.0000 |       0.0000 |       0.0000 |       0.0000 |       0.0000 |       0.0000 |       0.0000 |       0.0000 |       0.0000 |       0.0000 |       0.0000 |       0.0000 |       0.0000 |       0.0000 |       0.0000 |       0.0000 |       0.0000 |       0.0000 |       0.0000 |       0.0000 |
itlb.wb_rate                                0.0000 |       0.0000 |       0.0000 |       0.0000 |       0.0000 |       0.0000 |       0.0000 |       0.0000 |       0.0000 |       0.0000 |       0.0000 |       0.0000 |       0.0000 |       0.0000 |       0.0000 |       0.0000 |       0.0000 |       0.0000 |       0.0000 |       0.0000 |       0.0000 |       0.0000 |       0.0000 |       0.0000 |       0.0000 |       0.0000 |       0.0000 |       0.0000 |       0.0000 |       0.0000 |       0.0000 |       0.0000 |       0.0000 |       0.0000 |       0.0000 |       0.0000 |       0.0000 |       0.0000 |       0.0000 |       0.0000 |       0.0000 |       0.0000 |       0.0000 |       0.0000 |
itlb.inv_rate                               0.0000 |       0.0000 |       0.0000 |       0.0000 |       0.0000 |       0.0000 |       0.0000 |       0.0000 |       0.0000 |       0.0000 |       0.0000 |       0.0000 |       0.0000 |       0.0000 |       0.0000 |       0.0000 |       0.0000 |       0.0000 |       0.0000 |       0.0000 |       0.0000 |       0.0000 |       0.0000 |       0.0000 |       0.0000 |       0.0000 |       0.0000 |       0.0000 |       0.0000 |       0.0000 |       0.0000 |       0.0000 |       0.0000 |       0.0000 |       0.0000 |       0.0000 |       0.0000 |       0.0000 |       0.0000 |       0.0000 |       0.0000 |       0.0000 |       0.0000 |       0.0000 |
dtlb.accesses                               155367 |       155367 |       155367 |       155367 |       302867 |       302867 |       302867 |       302867 |       597779 |       597779 |       597779 |       597779 |      1187603 |      1187603 |      1187603 |      1187603 |      2367251 |      2367251 |      2367251 |      2367251 |      4726547 |      4726547 |      4726547 |      4726547 |      9445139 |      9445139 |      9445139 |      9445139 |     18882323 |     18882323 |     18882323 |     18882323 |     37765953 |     37765953 |     37765953 |     37765953 |     75520833 |     75520833 |     75520833 |     75520833 |    151030593 |    151030593 |    151030593 |    151030593 |
dtlb.hits                                   155352 |       155352 |       155352 |       155352 |       302844 |       302844 |       302844 |       302844 |       597740 |       597740 |       597740 |       597740 |      1187532 |      1187532 |      1187532 |      1187532 |      2367104 |      2367104 |      2367104 |      2367104 |      4716317 |      4716317 |      4716317 |      4716317 |      8919486 |      8919486 |      8919486 |      8919486 |     17560524 |     17560524 |     17560524 |     17560524 |     34592986 |     34592986 |     34592986 |     34592986 |     68528404 |     68528404 |     68528404 |     68528404 |    136188701 |    136188701 |    136188701 |    136188701 |
dtlb.misses                                     15 |           15 |           15 |           15 |           23 |           23 |           23 |           23 |           39 |           39 |           39 |           39 |           71 |           71 |           71 |           71 |          147 |          147 |          147 |          147 |        10230 |        10230 |        10230 |        10230 |       525653 |       525653 |       525653 |       525653 |      1321799 |      1321799 |      1321799 |      1321799 |      3172967 |      3172967 |      3172967 |      3172967 |      6992429 |      6992429 |      6992429 |      6992429 |     14841892 |     14841892 |     14841892 |     14841892 |
dtlb.replacements                                0 |            0 |            0 |            0 |            0 |            0 |            0 |            0 |            0 |            0 |            0 |            0 |            0 |            0 |            0 |            0 |           19 |           19 |           19 |           19 |        10102 |        10102 |        10102 |        10102 |       525525 |       525525 |       525525 |       525525 |      1321671 |      1321671 |      1321671 |      1321671 |      3172839 |      3172839 |      3172839 |      3172839 |      6992301 |      6992301 |      6992301 |      6992301 |     14841764 |     14841764 |     14841764 |     14841764 |
dtlb.writebacks                                  0 |            0 |            0 |            0 |            0 |            0 |            0 |            0 |            0 |            0 |            0 |            0 |            0 |            0 |            0 |            0 |           15 |           15 |           15 |           15 |         9575 |         9575 |         9575 |         9575 |       524247 |       524247 |       524247 |       524247 |      1319158 |      1319158 |      1319158 |      1319158 |      3167774 |      3167774 |      3167774 |      3167774 |      6982155 |      6982155 |      6982155 |      6982155 |     14821372 |     14821372 |     14821372 |     14821372 |
dtlb.invalidations                               0 |            0 |            0 |            0 |            0 |            0 |            0 |            0 |            0 |            0 |            0 |            0 |            0 |            0 |            0 |            0 |            0 |            0 |            0 |            0 |            0 |            0 |            0 |            0 |            0 |            0 |            0 |            0 |            0 |            0 |            0 |            0 |            0 |            0 |            0 |            0 |            0 |            0 |            0 |            0 |            0 |            0 |            0 |            0 |
dtlb.miss_rate                              0.0001 |       0.0001 |       0.0001 |       0.0001 |       0.0001 |       0.0001 |       0.0001 |       0.0001 |       0.0001 |       0.0001 |       0.0001 |       0.0001 |       0.0001 |       0.0001 |       0.0001 |       0.0001 |       0.0001 |       0.0001 |       0.0001 |       0.0001 |       0.0022 |       0.0022 |       0.0022 |       0.0022 |       0.0557 |       0.0557 |       0.0557 |       0.0557 |       0.0700 |       0.0700 |       0.0700 |       0.0700 |       0.0840 |       0.0840 |       0.0840 |       0.0840 |       0.0926 |       0.0926 |       0.0926 |       0.0926 |       0.0983 |       0.0983 |       0.0983 |       0.0983 |
dtlb.repl_rate                              0.0000 |       0.0000 |       0.0000 |       0.0000 |       0.0000 |       0.0000 |       0.0000 |       0.0000 |       0.0000 |       0.0000 |       0.0000 |       0.0000 |       0.0000 |       0.0000 |       0.0000 |       0.0000 |       0.0000 |       0.0000 |       0.0000 |       0.0000 |       0.0021 |       0.0021 |       0.0021 |       0.0021 |       0.0556 |       0.0556 |       0.0556 |       0.0556 |       0.0700 |       0.0700 |       0.0700 |       0.0700 |       0.0840 |       0.0840 |       0.0840 |       0.0840 |       0.0926 |       0.0926 |       0.0926 |       0.0926 |       0.0983 |       0.0983 |       0.0983 |       0.0983 |
dtlb.wb_rate                                0.0000 |       0.0000 |       0.0000 |       0.0000 |       0.0000 |       0.0000 |       0.0000 |       0.0000 |       0.0000 |       0.0000 |       0.0000 |       0.0000 |       0.0000 |       0.0000 |       0.0000 |       0.0000 |       0.0000 |       0.0000 |       0.0000 |       0.0000 |       0.0020 |       0.0020 |       0.0020 |       0.0020 |       0.0555 |       0.0555 |       0.0555 |       0.0555 |       0.0699 |       0.0699 |       0.0699 |       0.0699 |       0.0839 |       0.0839 |       0.0839 |       0.0839 |       0.0925 |       0.0925 |       0.0925 |       0.0925 |       0.0981 |       0.0981 |       0.0981 |       0.0981 |
dtlb.inv_rate                               0.0000 |       0.0000 |       0.0000 |       0.0000 |       0.0000 |       0.0000 |       0.0000 |       0.0000 |       0.0000 |       0.0000 |       0.0000 |       0.0000 |       0.0000 |       0.0000 |       0.0000 |       0.0000 |       0.0000 |       0.0000 |       0.0000 |       0.0000 |       0.0000 |       0.0000 |       0.0000 |       0.0000 |       0.0000 |       0.0000 |       0.0000 |       0.0000 |       0.0000 |       0.0000 |       0.0000 |       0.0000 |       0.0000 |       0.0000 |       0.0000 |       0.0000 |       0.0000 |       0.0000 |       0.0000 |       0.0000 |       0.0000 |       0.0000 |       0.0000 |       0.0000 |
ld_text_base                            0x00400000 |   0x00400000 |   0x00400000 |   0x00400000 |   0x00400000 |   0x00400000 |   0x00400000 |   0x00400000 |   0x00400000 |   0x00400000 |   0x00400000 |   0x00400000 |   0x00400000 |   0x00400000 |   0x00400000 |   0x00400000 |   0x00400000 |   0x00400000 |   0x00400000 |   0x00400000 |   0x00400000 |   0x00400000 |   0x00400000 |   0x00400000 |   0x00400000 |   0x00400000 |   0x00400000 |   0x00400000 |   0x00400000 |   0x00400000 |   0x00400000 |   0x00400000 |   0x00400000 |   0x00400000 |   0x00400000 |   0x00400000 |   0x00400000 |   0x00400000 |   0x00400000 |   0x00400000 |   0x00400000 |   0x00400000 |   0x00400000 |   0x00400000 |
ld_text_size                                 73840 |        73840 |        73840 |        73840 |        73872 |        73872 |        73872 |        73872 |        73888 |        73888 |        73888 |        73888 |        73904 |        73904 |        73904 |        73904 |        73904 |        73904 |        73904 |        73904 |        73904 |        73904 |        73904 |        73904 |        73904 |        73904 |        73904 |        73904 |        73904 |        73904 |        73904 |        73904 |        73904 |        73904 |        73904 |        73904 |        73904 |        73904 |        73904 |        73904 |        73904 |        73904 |        73904 |        73904 |
ld_data_base                            0x10000000 |   0x10000000 |   0x10000000 |   0x10000000 |   0x10000000 |   0x10000000 |   0x10000000 |   0x10000000 |   0x10000000 |   0x10000000 |   0x10000000 |   0x10000000 |   0x10000000 |   0x10000000 |   0x10000000 |   0x10000000 |   0x10000000 |   0x10000000 |   0x10000000 |   0x10000000 |   0x10000000 |   0x10000000 |   0x10000000 |   0x10000000 |   0x10000000 |   0x10000000 |   0x10000000 |   0x10000000 |   0x10000000 |   0x10000000 |   0x10000000 |   0x10000000 |   0x10000000 |   0x10000000 |   0x10000000 |   0x10000000 |   0x10000000 |   0x10000000 |   0x10000000 |   0x10000000 |   0x10000000 |   0x10000000 |   0x10000000 |   0x10000000 |
ld_data_size                                  8192 |         8192 |         8192 |         8192 |         8192 |         8192 |         8192 |         8192 |         8192 |         8192 |         8192 |         8192 |         8192 |         8192 |         8192 |         8192 |         8192 |         8192 |         8192 |         8192 |         8192 |         8192 |         8192 |         8192 |         8192 |         8192 |         8192 |         8192 |         8192 |         8192 |         8192 |         8192 |         8192 |         8192 |         8192 |         8192 |         8192 |         8192 |         8192 |         8192 |         8192 |         8192 |         8192 |         8192 |
ld_stack_base                           0x7fffc000 |   0x7fffc000 |   0x7fffc000 |   0x7fffc000 |   0x7fffc000 |   0x7fffc000 |   0x7fffc000 |   0x7fffc000 |   0x7fffc000 |   0x7fffc000 |   0x7fffc000 |   0x7fffc000 |   0x7fffc000 |   0x7fffc000 |   0x7fffc000 |   0x7fffc000 |   0x7fffc000 |   0x7fffc000 |   0x7fffc000 |   0x7fffc000 |   0x7fffc000 |   0x7fffc000 |   0x7fffc000 |   0x7fffc000 |   0x7fffc000 |   0x7fffc000 |   0x7fffc000 |   0x7fffc000 |   0x7fffc000 |   0x7fffc000 |   0x7fffc000 |   0x7fffc000 |   0x7fffc000 |   0x7fffc000 |   0x7fffc000 |   0x7fffc000 |   0x7fffc000 |   0x7fffc000 |   0x7fffc000 |   0x7fffc000 |   0x7fffc000 |   0x7fffc000 |   0x7fffc000 |   0x7fffc000 |
ld_stack_size                                16384 |        16384 |        16384 |        16384 |        16384 |        16384 |        16384 |        16384 |        16384 |        16384 |        16384 |        16384 |        16384 |        16384 |        16384 |        16384 |        16384 |        16384 |        16384 |        16384 |        16384 |        16384 |        16384 |        16384 |        16384 |        16384 |        16384 |        16384 |        16384 |        16384 |        16384 |        16384 |        16384 |        16384 |        16384 |        16384 |        16384 |        16384 |        16384 |        16384 |        16384 |        16384 |        16384 |        16384 |
ld_prog_entry                           0x00400140 |   0x00400140 |   0x00400140 |   0x00400140 |   0x00400140 |   0x00400140 |   0x00400140 |   0x00400140 |   0x00400140 |   0x00400140 |   0x00400140 |   0x00400140 |   0x00400140 |   0x00400140 |   0x00400140 |   0x00400140 |   0x00400140 |   0x00400140 |   0x00400140 |   0x00400140 |   0x00400140 |   0x00400140 |   0x00400140 |   0x00400140 |   0x00400140 |   0x00400140 |   0x00400140 |   0x00400140 |   0x00400140 |   0x00400140 |   0x00400140 |   0x00400140 |   0x00400140 |   0x00400140 |   0x00400140 |   0x00400140 |   0x00400140 |   0x00400140 |   0x00400140 |   0x00400140 |   0x00400140 |   0x00400140 |   0x00400140 |   0x00400140 |
ld_environ_base                         0x7fff8000 |   0x7fff8000 |   0x7fff8000 |   0x7fff8000 |   0x7fff8000 |   0x7fff8000 |   0x7fff8000 |   0x7fff8000 |   0x7fff8000 |   0x7fff8000 |   0x7fff8000 |   0x7fff8000 |   0x7fff8000 |   0x7fff8000 |   0x7fff8000 |   0x7fff8000 |   0x7fff8000 |   0x7fff8000 |   0x7fff8000 |   0x7fff8000 |   0x7fff8000 |   0x7fff8000 |   0x7fff8000 |   0x7fff8000 |   0x7fff8000 |   0x7fff8000 |   0x7fff8000 |   0x7fff8000 |   0x7fff8000 |   0x7fff8000 |   0x7fff8000 |   0x7fff8000 |   0x7fff8000 |   0x7fff8000 |   0x7fff8000 |   0x7fff8000 |   0x7fff8000 |   0x7fff8000 |   0x7fff8000 |   0x7fff8000 |   0x7fff8000 |   0x7fff8000 |   0x7fff8000 |   0x7fff8000 |
ld_target_big_endian                             0 |            0 |            0 |            0 |            0 |            0 |            0 |            0 |            0 |            0 |            0 |            0 |            0 |            0 |            0 |            0 |            0 |            0 |            0 |            0 |            0 |            0 |            0 |            0 |            0 |            0 |            0 |            0 |            0 |            0 |            0 |            0 |            0 |            0 |            0 |            0 |            0 |            0 |            0 |            0 |            0 |            0 |            0 |            0 |
mem.page_count                                  34 |           34 |           34 |           34 |           42 |           42 |           42 |           42 |           58 |           58 |           58 |           58 |           90 |           90 |           90 |           90 |          154 |          154 |          154 |          154 |          282 |          282 |          282 |          282 |          538 |          538 |          538 |          538 |         1050 |         1050 |         1050 |         1050 |         2080 |         2080 |         2080 |         2080 |         4134 |         4134 |         4134 |         4134 |         8242 |         8242 |         8242 |         8242 |
mem.page_mem                                  136k |         136k |         136k |         136k |         168k |         168k |         168k |         168k |         232k |         232k |         232k |         232k |         360k |         360k |         360k |         360k |         616k |         616k |         616k |         616k |        1128k |        1128k |        1128k |        1128k |        2152k |        2152k |        2152k |        2152k |        4200k |        4200k |        4200k |        4200k |        8320k |        8320k |        8320k |        8320k |       16536k |       16536k |       16536k |       16536k |       32968k |       32968k |       32968k |       32968k |
mem.ptab_misses                                 34 |           34 |           34 |           34 |           42 |           42 |           42 |           42 |           58 |           58 |           58 |           58 |           90 |           90 |           90 |           90 |          154 |          154 |          154 |          154 |          282 |          282 |          282 |          282 |          538 |          538 |          538 |          538 |         1050 |         1050 |         1050 |         1050 |        18467 |        18467 |        18467 |        18467 |        18477 |        18477 |        18477 |        18477 |        22585 |        22585 |        22585 |        22585 |
mem.ptab_accesses                          2282942 |      2282942 |      2282942 |      2282942 |      4040974 |      4040974 |      4040974 |      4040974 |      7555446 |      7555446 |      7555446 |      7555446 |     14584282 |     14584282 |     14584282 |     14584282 |     28641754 |     28641754 |     28641754 |     28641754 |     56756702 |     56756702 |     56756702 |     56756702 |    112986590 |    112986590 |    112986590 |    112986590 |    225446366 |    225446366 |    225446366 |    225446366 |    450434346 |    450434346 |    450434346 |    450434346 |    900322634 |    900322634 |    900322634 |    900322634 |   1800099178 |   1800099178 |   1800099178 |   1800099178 |
mem.ptab_miss_rate                          0.0000 |       0.0000 |       0.0000 |       0.0000 |       0.0000 |       0.0000 |       0.0000 |       0.0000 |       0.0000 |       0.0000 |       0.0000 |       0.0000 |       0.0000 |       0.0000 |       0.0000 |       0.0000 |       0.0000 |       0.0000 |       0.0000 |       0.0000 |       0.0000 |       0.0000 |       0.0000 |       0.0000 |       0.0000 |       0.0000 |       0.0000 |       0.0000 |       0.0000 |       0.0000 |       0.0000 |       0.0000 |       0.0000 |       0.0000 |       0.0000 |       0.0000 |       0.0000 |       0.0000 |       0.0000 |       0.0000 |       0.0000 |       0.0000 |       0.0000 |       0.0000 |
-------------------------------------------------------------------------------------------------
sim-bpred                                     4096 |         4096 |         4096 |         4096 |         4096 |         4096 |         4096 |         8192 |         8192 |         8192 |         8192 |         8192 |         8192 |         8192 |        16384 |        16384 |        16384 |        16384 |        16384 |        16384 |        16384 |        32768 |        32768 |        32768 |        32768 |        32768 |        32768 |        32768 |        65536 |        65536 |        65536 |        65536 |        65536 |        65536 |        65536 |       131072 |       131072 |       131072 |       131072 |       131072 |       131072 |       131072 |       262144 |       262144 |       262144 |       262144 |       262144 |       262144 |       262144 |       524288 |       524288 |       524288 |       524288 |       524288 |       524288 |       524288 |      1048576 |      1048576 |      1048576 |      1048576 |      1048576 |      1048576 |      1048576 |      2097152 |      2097152 |      2097152 |      2097152 |      2097152 |      2097152 |      2097152 |      4194304 |      4194304 |      4194304 |      4194304 |      4194304 |      4194304 |      4194304 |
-bpred bimod -bpred:bimod 512
-bpred bimod -bpred:bimod 1024
-bpred bimod -bpred:bimod 2048
-bpred 2lev -bpred:2lev 1 512 10 1
-bpred 2lev -bpred:2lev 1 1024 10 1
-bpred 2lev -bpred:2lev 1 2048 10 1
-bpred 2lev -bpred:2lev 1 4096 10 1
-------------------------------------------------------------------------------------------------
sim_num_insn                                378639 |       378639 |       378639 |       378639 |       378639 |       378639 |       378639 |       744349 |       744349 |       744349 |       744349 |       744349 |       744349 |       744349 |      1475487 |      1475487 |      1475487 |      1475487 |      1475487 |      1475487 |      1475487 |      2937760 |      2937760 |      2937760 |      2937760 |      2937760 |      2937760 |      2937760 |      5862304 |      5862304 |      5862304 |      5862304 |      5862304 |      5862304 |      5862304 |     11711393 |     11711393 |     11711393 |     11711393 |     11711393 |     11711393 |     11711393 |     23409569 |     23409569 |     23409569 |     23409569 |     23409569 |     23409569 |     23409569 |     46805921 |     46805921 |     46805921 |     46805921 |     46805921 |     46805921 |     46805921 |     93611101 |     93611101 |     93611101 |     93611101 |     93611101 |     93611101 |     93611101 |    187205733 |    187205733 |    187205733 |    187205733 |    187205733 |    187205733 |    187205733 |    374394989 |    374394989 |    374394989 |    374394989 |    374394989 |    374394989 |    374394989 |
sim_num_refs                                138909 |       138909 |       138909 |       138909 |       138909 |       138909 |       138909 |       270025 |       270025 |       270025 |       270025 |       270025 |       270025 |       270025 |       532169 |       532169 |       532169 |       532169 |       532169 |       532169 |       532169 |      1056457 |      1056457 |      1056457 |      1056457 |      1056457 |      1056457 |      1056457 |      2105033 |      2105033 |      2105033 |      2105033 |      2105033 |      2105033 |      2105033 |      4202185 |      4202185 |      4202185 |      4202185 |      4202185 |      4202185 |      4202185 |      8396489 |      8396489 |      8396489 |      8396489 |      8396489 |      8396489 |      8396489 |     16785097 |     16785097 |     16785097 |     16785097 |     16785097 |     16785097 |     16785097 |     33571575 |     33571575 |     33571575 |     33571575 |     33571575 |     33571575 |     33571575 |     67132151 |     67132151 |     67132151 |     67132151 |     67132151 |     67132151 |     67132151 |    134253303 |    134253303 |    134253303 |    134253303 |    134253303 |    134253303 |    134253303 |
sim_elapsed_time                                 1 |            1 |            1 |            1 |            1 |            1 |            1 |            1 |            1 |            1 |            1 |            1 |            1 |            1 |            1 |            1 |            1 |            1 |            1 |            1 |            1 |            1 |            1 |            1 |            1 |            1 |            1 |            1 |            1 |            1 |            1 |            1 |            1 |            1 |            1 |            1 |            1 |            2 |            1 |            1 |            1 |            1 |            2 |            2 |            3 |            2 |            2 |            3 |            2 |            4 |            5 |            4 |            5 |            5 |            4 |            5 |            9 |            9 |           10 |            9 |            9 |            9 |           10 |           19 |           18 |           18 |           19 |           18 |           18 |           19 |           37 |           36 |           37 |           37 |           37 |           37 |           37 |
sim_inst_rate                          378639.0000 |  378639.0000 |  378639.0000 |  378639.0000 |  378639.0000 |  378639.0000 |  378639.0000 |  744349.0000 |  744349.0000 |  744349.0000 |  744349.0000 |  744349.0000 |  744349.0000 |  744349.0000 | 1475487.0000 | 1475487.0000 | 1475487.0000 | 1475487.0000 | 1475487.0000 | 1475487.0000 | 1475487.0000 | 2937760.0000 | 2937760.0000 | 2937760.0000 | 2937760.0000 | 2937760.0000 | 2937760.0000 | 2937760.0000 | 5862304.0000 | 5862304.0000 | 5862304.0000 | 5862304.0000 | 5862304.0000 | 5862304.0000 | 5862304.0000 |11711393.0000 |11711393.0000 | 5855696.5000 |11711393.0000 |11711393.0000 |11711393.0000 |11711393.0000 |11704784.5000 |11704784.5000 | 7803189.6667 |11704784.5000 |11704784.5000 | 7803189.6667 |11704784.5000 |11701480.2500 | 9361184.2000 |11701480.2500 | 9361184.2000 | 9361184.2000 |11701480.2500 | 9361184.2000 |10401233.4444 |10401233.4444 | 9361110.1000 |10401233.4444 |10401233.4444 |10401233.4444 | 9361110.1000 | 9852933.3158 |10400318.5000 |10400318.5000 | 9852933.3158 |10400318.5000 |10400318.5000 | 9852933.3158 |10118783.4865 |10399860.8056 |10118783.4865 |10118783.4865 |10118783.4865 |10118783.4865 |10118783.4865 |
sim_num_branches                              9239 |         9239 |         9239 |         9239 |         9239 |         9239 |         9239 |        17471 |        17471 |        17471 |        17471 |        17471 |        17471 |        17471 |        33855 |        33855 |        33855 |        33855 |        33855 |        33855 |        33855 |        66623 |        66623 |        66623 |        66623 |        66623 |        66623 |        66623 |       132159 |       132159 |       132159 |       132159 |       132159 |       132159 |       132159 |       263231 |       263231 |       263231 |       263231 |       263231 |       263231 |       263231 |       525375 |       525375 |       525375 |       525375 |       525375 |       525375 |       525375 |      1049663 |      1049663 |      1049663 |      1049663 |      1049663 |      1049663 |      1049663 |      2099032 |      2099032 |      2099032 |      2099032 |      2099032 |      2099032 |      2099032 |      4196955 |      4196955 |      4196955 |      4196955 |      4196955 |      4196955 |      4196955 |      8392798 |      8392798 |      8392798 |      8392798 |      8392798 |      8392798 |      8392798 |
sim_IPB                                    40.9827 |      40.9827 |      40.9827 |      40.9827 |      40.9827 |      40.9827 |      40.9827 |      42.6048 |      42.6048 |      42.6048 |      42.6048 |      42.6048 |      42.6048 |      42.6048 |      43.5825 |      43.5825 |      43.5825 |      43.5825 |      43.5825 |      43.5825 |      43.5825 |      44.0953 |      44.0953 |      44.0953 |      44.0953 |      44.0953 |      44.0953 |      44.0953 |      44.3580 |      44.3580 |      44.3580 |      44.3580 |      44.3580 |      44.3580 |      44.3580 |      44.4909 |      44.4909 |      44.4909 |      44.4909 |      44.4909 |      44.4909 |      44.4909 |      44.5578 |      44.5578 |      44.5578 |      44.5578 |      44.5578 |      44.5578 |      44.5578 |      44.5914 |      44.5914 |      44.5914 |      44.5914 |      44.5914 |      44.5914 |      44.5914 |      44.5973 |      44.5973 |      44.5973 |      44.5973 |      44.5973 |      44.5973 |      44.5973 |      44.6051 |      44.6051 |      44.6051 |      44.6051 |      44.6051 |      44.6051 |      44.6051 |      44.6091 |      44.6091 |      44.6091 |      44.6091 |      44.6091 |      44.6091 |      44.6091 |
bpred_bimod.lookups                           9239 |         9239 |         9239 |xxxxxxxxxxxxx |xxxxxxxxxxxxx |xxxxxxxxxxxxx |xxxxxxxxxxxxx |        17471 |        17471 |        17471 |xxxxxxxxxxxxx |xxxxxxxxxxxxx |xxxxxxxxxxxxx |xxxxxxxxxxxxx |        33855 |        33855 |        33855 |xxxxxxxxxxxxx |xxxxxxxxxxxxx |xxxxxxxxxxxxx |xxxxxxxxxxxxx |        66623 |        66623 |        66623 |xxxxxxxxxxxxx |xxxxxxxxxxxxx |xxxxxxxxxxxxx |xxxxxxxxxxxxx |       132159 |       132159 |       132159 |xxxxxxxxxxxxx |xxxxxxxxxxxxx |xxxxxxxxxxxxx |xxxxxxxxxxxxx |       263231 |       263231 |       263231 |xxxxxxxxxxxxx |xxxxxxxxxxxxx |xxxxxxxxxxxxx |xxxxxxxxxxxxx |       525375 |       525375 |       525375 |xxxxxxxxxxxxx |xxxxxxxxxxxxx |xxxxxxxxxxxxx |xxxxxxxxxxxxx |      1049663 |      1049663 |      1049663 |xxxxxxxxxxxxx |xxxxxxxxxxxxx |xxxxxxxxxxxxx |xxxxxxxxxxxxx |      2099032 |      2099032 |      2099032 |xxxxxxxxxxxxx |xxxxxxxxxxxxx |xxxxxxxxxxxxx |xxxxxxxxxxxxx |      4196955 |      4196955 |      4196955 |xxxxxxxxxxxxx |xxxxxxxxxxxxx |xxxxxxxxxxxxx |xxxxxxxxxxxxx |      8392798 |      8392798 |      8392798 |
bpred_bimod.updates                           9239 |         9239 |         9239 |xxxxxxxxxxxxx |xxxxxxxxxxxxx |xxxxxxxxxxxxx |xxxxxxxxxxxxx |        17471 |        17471 |        17471 |xxxxxxxxxxxxx |xxxxxxxxxxxxx |xxxxxxxxxxxxx |xxxxxxxxxxxxx |        33855 |        33855 |        33855 |xxxxxxxxxxxxx |xxxxxxxxxxxxx |xxxxxxxxxxxxx |xxxxxxxxxxxxx |        66623 |        66623 |        66623 |xxxxxxxxxxxxx |xxxxxxxxxxxxx |xxxxxxxxxxxxx |xxxxxxxxxxxxx |       132159 |       132159 |       132159 |xxxxxxxxxxxxx |xxxxxxxxxxxxx |xxxxxxxxxxxxx |xxxxxxxxxxxxx |       263231 |       263231 |       263231 |xxxxxxxxxxxxx |xxxxxxxxxxxxx |xxxxxxxxxxxxx |xxxxxxxxxxxxx |       525375 |       525375 |       525375 |xxxxxxxxxxxxx |xxxxxxxxxxxxx |xxxxxxxxxxxxx |xxxxxxxxxxxxx |      1049663 |      1049663 |      1049663 |xxxxxxxxxxxxx |xxxxxxxxxxxxx |xxxxxxxxxxxxx |xxxxxxxxxxxxx |      2099032 |      2099032 |      2099032 |xxxxxxxxxxxxx |xxxxxxxxxxxxx |xxxxxxxxxxxxx |xxxxxxxxxxxxx |      4196955 |      4196955 |      4196955 |xxxxxxxxxxxxx |xxxxxxxxxxxxx |xxxxxxxxxxxxx |xxxxxxxxxxxxx |      8392798 |      8392798 |      8392798 |
bpred_bimod.addr_hits                         9039 |         9040 |         9041 |xxxxxxxxxxxxx |xxxxxxxxxxxxx |xxxxxxxxxxxxx |xxxxxxxxxxxxx |        17262 |        17265 |        17266 |xxxxxxxxxxxxx |xxxxxxxxxxxxx |xxxxxxxxxxxxx |xxxxxxxxxxxxx |        33646 |        33648 |        33649 |xxxxxxxxxxxxx |xxxxxxxxxxxxx |xxxxxxxxxxxxx |xxxxxxxxxxxxx |        66414 |        66416 |        66417 |xxxxxxxxxxxxx |xxxxxxxxxxxxx |xxxxxxxxxxxxx |xxxxxxxxxxxxx |       131950 |       131952 |       131953 |xxxxxxxxxxxxx |xxxxxxxxxxxxx |xxxxxxxxxxxxx |xxxxxxxxxxxxx |       263022 |       263024 |       263025 |xxxxxxxxxxxxx |xxxxxxxxxxxxx |xxxxxxxxxxxxx |xxxxxxxxxxxxx |       525166 |       525168 |       525169 |xxxxxxxxxxxxx |xxxxxxxxxxxxx |xxxxxxxxxxxxx |xxxxxxxxxxxxx |      1049454 |      1049456 |      1049457 |xxxxxxxxxxxxx |xxxxxxxxxxxxx |xxxxxxxxxxxxx |xxxxxxxxxxxxx |      2098800 |      2098801 |      2098801 |xxxxxxxxxxxxx |xxxxxxxxxxxxx |xxxxxxxxxxxxx |xxxxxxxxxxxxx |      4196723 |      4196724 |      4196724 |xxxxxxxxxxxxx |xxxxxxxxxxxxx |xxxxxxxxxxxxx |xxxxxxxxxxxxx |      8392566 |      8392567 |      8392567 |
bpred_bimod.dir_hits                          9138 |         9141 |         9142 |xxxxxxxxxxxxx |xxxxxxxxxxxxx |xxxxxxxxxxxxx |xxxxxxxxxxxxx |        17366 |        17370 |        17371 |xxxxxxxxxxxxx |xxxxxxxxxxxxx |xxxxxxxxxxxxx |xxxxxxxxxxxxx |        33750 |        33753 |        33754 |xxxxxxxxxxxxx |xxxxxxxxxxxxx |xxxxxxxxxxxxx |xxxxxxxxxxxxx |        66517 |        66520 |        66521 |xxxxxxxxxxxxx |xxxxxxxxxxxxx |xxxxxxxxxxxxx |xxxxxxxxxxxxx |       132053 |       132056 |       132057 |xxxxxxxxxxxxx |xxxxxxxxxxxxx |xxxxxxxxxxxxx |xxxxxxxxxxxxx |       263126 |       263129 |       263130 |xxxxxxxxxxxxx |xxxxxxxxxxxxx |xxxxxxxxxxxxx |xxxxxxxxxxxxx |       525270 |       525273 |       525274 |xxxxxxxxxxxxx |xxxxxxxxxxxxx |xxxxxxxxxxxxx |xxxxxxxxxxxxx |      1049558 |      1049561 |      1049562 |xxxxxxxxxxxxx |xxxxxxxxxxxxx |xxxxxxxxxxxxx |xxxxxxxxxxxxx |      2098915 |      2098916 |      2098917 |xxxxxxxxxxxxx |xxxxxxxxxxxxx |xxxxxxxxxxxxx |xxxxxxxxxxxxx |      4196838 |      4196839 |      4196840 |xxxxxxxxxxxxx |xxxxxxxxxxxxx |xxxxxxxxxxxxx |xxxxxxxxxxxxx |      8392681 |      8392682 |      8392683 |
bpred_bimod.misses                             101 |           98 |           97 |xxxxxxxxxxxxx |xxxxxxxxxxxxx |xxxxxxxxxxxxx |xxxxxxxxxxxxx |          105 |          101 |          100 |xxxxxxxxxxxxx |xxxxxxxxxxxxx |xxxxxxxxxxxxx |xxxxxxxxxxxxx |          105 |          102 |          101 |xxxxxxxxxxxxx |xxxxxxxxxxxxx |xxxxxxxxxxxxx |xxxxxxxxxxxxx |          106 |          103 |          102 |xxxxxxxxxxxxx |xxxxxxxxxxxxx |xxxxxxxxxxxxx |xxxxxxxxxxxxx |          106 |          103 |          102 |xxxxxxxxxxxxx |xxxxxxxxxxxxx |xxxxxxxxxxxxx |xxxxxxxxxxxxx |          105 |          102 |          101 |xxxxxxxxxxxxx |xxxxxxxxxxxxx |xxxxxxxxxxxxx |xxxxxxxxxxxxx |          105 |          102 |          101 |xxxxxxxxxxxxx |xxxxxxxxxxxxx |xxxxxxxxxxxxx |xxxxxxxxxxxxx |          105 |          102 |          101 |xxxxxxxxxxxxx |xxxxxxxxxxxxx |xxxxxxxxxxxxx |xxxxxxxxxxxxx |          117 |          116 |          115 |xxxxxxxxxxxxx |xxxxxxxxxxxxx |xxxxxxxxxxxxx |xxxxxxxxxxxxx |          117 |          116 |          115 |xxxxxxxxxxxxx |xxxxxxxxxxxxx |xxxxxxxxxxxxx |xxxxxxxxxxxxx |          117 |          116 |          115 |
bpred_bimod.jr_hits                             61 |           61 |           61 |xxxxxxxxxxxxx |xxxxxxxxxxxxx |xxxxxxxxxxxxx |xxxxxxxxxxxxx |           69 |           69 |           69 |xxxxxxxxxxxxx |xxxxxxxxxxxxx |xxxxxxxxxxxxx |xxxxxxxxxxxxx |           69 |           69 |           69 |xxxxxxxxxxxxx |xxxxxxxxxxxxx |xxxxxxxxxxxxx |xxxxxxxxxxxxx |           69 |           69 |           69 |xxxxxxxxxxxxx |xxxxxxxxxxxxx |xxxxxxxxxxxxx |xxxxxxxxxxxxx |           69 |           69 |           69 |xxxxxxxxxxxxx |xxxxxxxxxxxxx |xxxxxxxxxxxxx |xxxxxxxxxxxxx |           69 |           69 |           69 |xxxxxxxxxxxxx |xxxxxxxxxxxxx |xxxxxxxxxxxxx |xxxxxxxxxxxxx |           69 |           69 |           69 |xxxxxxxxxxxxx |xxxxxxxxxxxxx |xxxxxxxxxxxxx |xxxxxxxxxxxxx |           69 |           69 |           69 |xxxxxxxxxxxxx |xxxxxxxxxxxxx |xxxxxxxxxxxxx |xxxxxxxxxxxxx |           72 |           72 |           72 |xxxxxxxxxxxxx |xxxxxxxxxxxxx |xxxxxxxxxxxxx |xxxxxxxxxxxxx |           72 |           72 |           72 |xxxxxxxxxxxxx |xxxxxxxxxxxxx |xxxxxxxxxxxxx |xxxxxxxxxxxxx |           72 |           72 |           72 |
bpred_bimod.jr_seen                             61 |           61 |           61 |xxxxxxxxxxxxx |xxxxxxxxxxxxx |xxxxxxxxxxxxx |xxxxxxxxxxxxx |           70 |           70 |           70 |xxxxxxxxxxxxx |xxxxxxxxxxxxx |xxxxxxxxxxxxx |xxxxxxxxxxxxx |           70 |           70 |           70 |xxxxxxxxxxxxx |xxxxxxxxxxxxx |xxxxxxxxxxxxx |xxxxxxxxxxxxx |           70 |           70 |           70 |xxxxxxxxxxxxx |xxxxxxxxxxxxx |xxxxxxxxxxxxx |xxxxxxxxxxxxx |           70 |           70 |           70 |xxxxxxxxxxxxx |xxxxxxxxxxxxx |xxxxxxxxxxxxx |xxxxxxxxxxxxx |           70 |           70 |           70 |xxxxxxxxxxxxx |xxxxxxxxxxxxx |xxxxxxxxxxxxx |xxxxxxxxxxxxx |           70 |           70 |           70 |xxxxxxxxxxxxx |xxxxxxxxxxxxx |xxxxxxxxxxxxx |xxxxxxxxxxxxx |           70 |           70 |           70 |xxxxxxxxxxxxx |xxxxxxxxxxxxx |xxxxxxxxxxxxx |xxxxxxxxxxxxx |           73 |           73 |           73 |xxxxxxxxxxxxx |xxxxxxxxxxxxx |xxxxxxxxxxxxx |xxxxxxxxxxxxx |           73 |           73 |           73 |xxxxxxxxxxxxx |xxxxxxxxxxxxx |xxxxxxxxxxxxx |xxxxxxxxxxxxx |           73 |           73 |           73 |
bpred_bimod.jr_non_ras_hits.PP                   0 |            0 |            0 |xxxxxxxxxxxxx |xxxxxxxxxxxxx |xxxxxxxxxxxxx |xxxxxxxxxxxxx |            0 |            0 |            0 |xxxxxxxxxxxxx |xxxxxxxxxxxxx |xxxxxxxxxxxxx |xxxxxxxxxxxxx |            0 |            0 |            0 |xxxxxxxxxxxxx |xxxxxxxxxxxxx |xxxxxxxxxxxxx |xxxxxxxxxxxxx |            0 |            0 |            0 |xxxxxxxxxxxxx |xxxxxxxxxxxxx |xxxxxxxxxxxxx |xxxxxxxxxxxxx |            0 |            0 |            0 |xxxxxxxxxxxxx |xxxxxxxxxxxxx |xxxxxxxxxxxxx |xxxxxxxxxxxxx |            0 |            0 |            0 |xxxxxxxxxxxxx |xxxxxxxxxxxxx |xxxxxxxxxxxxx |xxxxxxxxxxxxx |            0 |            0 |            0 |xxxxxxxxxxxxx |xxxxxxxxxxxxx |xxxxxxxxxxxxx |xxxxxxxxxxxxx |            0 |            0 |            0 |xxxxxxxxxxxxx |xxxxxxxxxxxxx |xxxxxxxxxxxxx |xxxxxxxxxxxxx |            0 |            0 |            0 |xxxxxxxxxxxxx |xxxxxxxxxxxxx |xxxxxxxxxxxxx |xxxxxxxxxxxxx |            0 |            0 |            0 |xxxxxxxxxxxxx |xxxxxxxxxxxxx |xxxxxxxxxxxxx |xxxxxxxxxxxxx |            0 |            0 |            0 |
bpred_bimod.jr_non_ras_seen.PP                   0 |            0 |            0 |xxxxxxxxxxxxx |xxxxxxxxxxxxx |xxxxxxxxxxxxx |xxxxxxxxxxxxx |            0 |            0 |            0 |xxxxxxxxxxxxx |xxxxxxxxxxxxx |xxxxxxxxxxxxx |xxxxxxxxxxxxx |            0 |            0 |            0 |xxxxxxxxxxxxx |xxxxxxxxxxxxx |xxxxxxxxxxxxx |xxxxxxxxxxxxx |            0 |            0 |            0 |xxxxxxxxxxxxx |xxxxxxxxxxxxx |xxxxxxxxxxxxx |xxxxxxxxxxxxx |            0 |            0 |            0 |xxxxxxxxxxxxx |xxxxxxxxxxxxx |xxxxxxxxxxxxx |xxxxxxxxxxxxx |            0 |            0 |            0 |xxxxxxxxxxxxx |xxxxxxxxxxxxx |xxxxxxxxxxxxx |xxxxxxxxxxxxx |            0 |            0 |            0 |xxxxxxxxxxxxx |xxxxxxxxxxxxx |xxxxxxxxxxxxx |xxxxxxxxxxxxx |            0 |            0 |            0 |xxxxxxxxxxxxx |xxxxxxxxxxxxx |xxxxxxxxxxxxx |xxxxxxxxxxxxx |            1 |            1 |            1 |xxxxxxxxxxxxx |xxxxxxxxxxxxx |xxxxxxxxxxxxx |xxxxxxxxxxxxx |            1 |            1 |            1 |xxxxxxxxxxxxx |xxxxxxxxxxxxx |xxxxxxxxxxxxx |xxxxxxxxxxxxx |            1 |            1 |            1 |
bpred_bimod.bpred_addr_rate                 0.9784 |       0.9785 |       0.9786 |xxxxxxxxxxxxx |xxxxxxxxxxxxx |xxxxxxxxxxxxx |xxxxxxxxxxxxx |       0.9880 |       0.9882 |       0.9883 |xxxxxxxxxxxxx |xxxxxxxxxxxxx |xxxxxxxxxxxxx |xxxxxxxxxxxxx |       0.9938 |       0.9939 |       0.9939 |xxxxxxxxxxxxx |xxxxxxxxxxxxx |xxxxxxxxxxxxx |xxxxxxxxxxxxx |       0.9969 |       0.9969 |       0.9969 |xxxxxxxxxxxxx |xxxxxxxxxxxxx |xxxxxxxxxxxxx |xxxxxxxxxxxxx |       0.9984 |       0.9984 |       0.9984 |xxxxxxxxxxxxx |xxxxxxxxxxxxx |xxxxxxxxxxxxx |xxxxxxxxxxxxx |       0.9992 |       0.9992 |       0.9992 |xxxxxxxxxxxxx |xxxxxxxxxxxxx |xxxxxxxxxxxxx |xxxxxxxxxxxxx |       0.9996 |       0.9996 |       0.9996 |xxxxxxxxxxxxx |xxxxxxxxxxxxx |xxxxxxxxxxxxx |xxxxxxxxxxxxx |       0.9998 |       0.9998 |       0.9998 |xxxxxxxxxxxxx |xxxxxxxxxxxxx |xxxxxxxxxxxxx |xxxxxxxxxxxxx |       0.9999 |       0.9999 |       0.9999 |xxxxxxxxxxxxx |xxxxxxxxxxxxx |xxxxxxxxxxxxx |xxxxxxxxxxxxx |       0.9999 |       0.9999 |       0.9999 |xxxxxxxxxxxxx |xxxxxxxxxxxxx |xxxxxxxxxxxxx |xxxxxxxxxxxxx |       1.0000 |       1.0000 |       1.0000 |
bpred_bimod.bpred_dir_rate                  0.9891 |       0.9894 |       0.9895 |xxxxxxxxxxxxx |xxxxxxxxxxxxx |xxxxxxxxxxxxx |xxxxxxxxxxxxx |       0.9940 |       0.9942 |       0.9943 |xxxxxxxxxxxxx |xxxxxxxxxxxxx |xxxxxxxxxxxxx |xxxxxxxxxxxxx |       0.9969 |       0.9970 |       0.9970 |xxxxxxxxxxxxx |xxxxxxxxxxxxx |xxxxxxxxxxxxx |xxxxxxxxxxxxx |       0.9984 |       0.9985 |       0.9985 |xxxxxxxxxxxxx |xxxxxxxxxxxxx |xxxxxxxxxxxxx |xxxxxxxxxxxxx |       0.9992 |       0.9992 |       0.9992 |xxxxxxxxxxxxx |xxxxxxxxxxxxx |xxxxxxxxxxxxx |xxxxxxxxxxxxx |       0.9996 |       0.9996 |       0.9996 |xxxxxxxxxxxxx |xxxxxxxxxxxxx |xxxxxxxxxxxxx |xxxxxxxxxxxxx |       0.9998 |       0.9998 |       0.9998 |xxxxxxxxxxxxx |xxxxxxxxxxxxx |xxxxxxxxxxxxx |xxxxxxxxxxxxx |       0.9999 |       0.9999 |       0.9999 |xxxxxxxxxxxxx |xxxxxxxxxxxxx |xxxxxxxxxxxxx |xxxxxxxxxxxxx |       0.9999 |       0.9999 |       0.9999 |xxxxxxxxxxxxx |xxxxxxxxxxxxx |xxxxxxxxxxxxx |xxxxxxxxxxxxx |       1.0000 |       1.0000 |       1.0000 |xxxxxxxxxxxxx |xxxxxxxxxxxxx |xxxxxxxxxxxxx |xxxxxxxxxxxxx |       1.0000 |       1.0000 |       1.0000 |
bpred_bimod.bpred_jr_rate                   1.0000 |       1.0000 |       1.0000 |xxxxxxxxxxxxx |xxxxxxxxxxxxx |xxxxxxxxxxxxx |xxxxxxxxxxxxx |       0.9857 |       0.9857 |       0.9857 |xxxxxxxxxxxxx |xxxxxxxxxxxxx |xxxxxxxxxxxxx |xxxxxxxxxxxxx |       0.9857 |       0.9857 |       0.9857 |xxxxxxxxxxxxx |xxxxxxxxxxxxx |xxxxxxxxxxxxx |xxxxxxxxxxxxx |       0.9857 |       0.9857 |       0.9857 |xxxxxxxxxxxxx |xxxxxxxxxxxxx |xxxxxxxxxxxxx |xxxxxxxxxxxxx |       0.9857 |       0.9857 |       0.9857 |xxxxxxxxxxxxx |xxxxxxxxxxxxx |xxxxxxxxxxxxx |xxxxxxxxxxxxx |       0.9857 |       0.9857 |       0.9857 |xxxxxxxxxxxxx |xxxxxxxxxxxxx |xxxxxxxxxxxxx |xxxxxxxxxxxxx |       0.9857 |       0.9857 |       0.9857 |xxxxxxxxxxxxx |xxxxxxxxxxxxx |xxxxxxxxxxxxx |xxxxxxxxxxxxx |       0.9857 |       0.9857 |       0.9857 |xxxxxxxxxxxxx |xxxxxxxxxxxxx |xxxxxxxxxxxxx |xxxxxxxxxxxxx |       0.9863 |       0.9863 |       0.9863 |xxxxxxxxxxxxx |xxxxxxxxxxxxx |xxxxxxxxxxxxx |xxxxxxxxxxxxx |       0.9863 |       0.9863 |       0.9863 |xxxxxxxxxxxxx |xxxxxxxxxxxxx |xxxxxxxxxxxxx |xxxxxxxxxxxxx |       0.9863 |       0.9863 |       0.9863 |
bpred_bimod.bpred_jr_non_ras_rate.PP       <error: |      <error: |      <error: |xxxxxxxxxxxxx |xxxxxxxxxxxxx |xxxxxxxxxxxxx |xxxxxxxxxxxxx |      <error: |      <error: |      <error: |xxxxxxxxxxxxx |xxxxxxxxxxxxx |xxxxxxxxxxxxx |xxxxxxxxxxxxx |      <error: |      <error: |      <error: |xxxxxxxxxxxxx |xxxxxxxxxxxxx |xxxxxxxxxxxxx |xxxxxxxxxxxxx |      <error: |      <error: |      <error: |xxxxxxxxxxxxx |xxxxxxxxxxxxx |xxxxxxxxxxxxx |xxxxxxxxxxxxx |      <error: |      <error: |      <error: |xxxxxxxxxxxxx |xxxxxxxxxxxxx |xxxxxxxxxxxxx |xxxxxxxxxxxxx |      <error: |      <error: |      <error: |xxxxxxxxxxxxx |xxxxxxxxxxxxx |xxxxxxxxxxxxx |xxxxxxxxxxxxx |      <error: |      <error: |      <error: |xxxxxxxxxxxxx |xxxxxxxxxxxxx |xxxxxxxxxxxxx |xxxxxxxxxxxxx |      <error: |      <error: |      <error: |xxxxxxxxxxxxx |xxxxxxxxxxxxx |xxxxxxxxxxxxx |xxxxxxxxxxxxx |       0.0000 |       0.0000 |       0.0000 |xxxxxxxxxxxxx |xxxxxxxxxxxxx |xxxxxxxxxxxxx |xxxxxxxxxxxxx |       0.0000 |       0.0000 |       0.0000 |xxxxxxxxxxxxx |xxxxxxxxxxxxx |xxxxxxxxxxxxx |xxxxxxxxxxxxx |       0.0000 |       0.0000 |       0.0000 |
bpred_bimod.retstack_pushes                     63 |           63 |           63 |xxxxxxxxxxxxx |xxxxxxxxxxxxx |xxxxxxxxxxxxx |xxxxxxxxxxxxx |           72 |           72 |           72 |xxxxxxxxxxxxx |xxxxxxxxxxxxx |xxxxxxxxxxxxx |xxxxxxxxxxxxx |           72 |           72 |           72 |xxxxxxxxxxxxx |xxxxxxxxxxxxx |xxxxxxxxxxxxx |xxxxxxxxxxxxx |           72 |           72 |           72 |xxxxxxxxxxxxx |xxxxxxxxxxxxx |xxxxxxxxxxxxx |xxxxxxxxxxxxx |           72 |           72 |           72 |xxxxxxxxxxxxx |xxxxxxxxxxxxx |xxxxxxxxxxxxx |xxxxxxxxxxxxx |           72 |           72 |           72 |xxxxxxxxxxxxx |xxxxxxxxxxxxx |xxxxxxxxxxxxx |xxxxxxxxxxxxx |           72 |           72 |           72 |xxxxxxxxxxxxx |xxxxxxxxxxxxx |xxxxxxxxxxxxx |xxxxxxxxxxxxx |           72 |           72 |           72 |xxxxxxxxxxxxx |xxxxxxxxxxxxx |xxxxxxxxxxxxx |xxxxxxxxxxxxx |           74 |           74 |           74 |xxxxxxxxxxxxx |xxxxxxxxxxxxx |xxxxxxxxxxxxx |xxxxxxxxxxxxx |           74 |           74 |           74 |xxxxxxxxxxxxx |xxxxxxxxxxxxx |xxxxxxxxxxxxx |xxxxxxxxxxxxx |           74 |           74 |           74 |
bpred_bimod.retstack_pops                       61 |           61 |           61 |xxxxxxxxxxxxx |xxxxxxxxxxxxx |xxxxxxxxxxxxx |xxxxxxxxxxxxx |           70 |           70 |           70 |xxxxxxxxxxxxx |xxxxxxxxxxxxx |xxxxxxxxxxxxx |xxxxxxxxxxxxx |           70 |           70 |           70 |xxxxxxxxxxxxx |xxxxxxxxxxxxx |xxxxxxxxxxxxx |xxxxxxxxxxxxx |           70 |           70 |           70 |xxxxxxxxxxxxx |xxxxxxxxxxxxx |xxxxxxxxxxxxx |xxxxxxxxxxxxx |           70 |           70 |           70 |xxxxxxxxxxxxx |xxxxxxxxxxxxx |xxxxxxxxxxxxx |xxxxxxxxxxxxx |           70 |           70 |           70 |xxxxxxxxxxxxx |xxxxxxxxxxxxx |xxxxxxxxxxxxx |xxxxxxxxxxxxx |           70 |           70 |           70 |xxxxxxxxxxxxx |xxxxxxxxxxxxx |xxxxxxxxxxxxx |xxxxxxxxxxxxx |           70 |           70 |           70 |xxxxxxxxxxxxx |xxxxxxxxxxxxx |xxxxxxxxxxxxx |xxxxxxxxxxxxx |           72 |           72 |           72 |xxxxxxxxxxxxx |xxxxxxxxxxxxx |xxxxxxxxxxxxx |xxxxxxxxxxxxx |           72 |           72 |           72 |xxxxxxxxxxxxx |xxxxxxxxxxxxx |xxxxxxxxxxxxx |xxxxxxxxxxxxx |           72 |           72 |           72 |
bpred_bimod.used_ras.PP                         61 |           61 |           61 |xxxxxxxxxxxxx |xxxxxxxxxxxxx |xxxxxxxxxxxxx |xxxxxxxxxxxxx |           70 |           70 |           70 |xxxxxxxxxxxxx |xxxxxxxxxxxxx |xxxxxxxxxxxxx |xxxxxxxxxxxxx |           70 |           70 |           70 |xxxxxxxxxxxxx |xxxxxxxxxxxxx |xxxxxxxxxxxxx |xxxxxxxxxxxxx |           70 |           70 |           70 |xxxxxxxxxxxxx |xxxxxxxxxxxxx |xxxxxxxxxxxxx |xxxxxxxxxxxxx |           70 |           70 |           70 |xxxxxxxxxxxxx |xxxxxxxxxxxxx |xxxxxxxxxxxxx |xxxxxxxxxxxxx |           70 |           70 |           70 |xxxxxxxxxxxxx |xxxxxxxxxxxxx |xxxxxxxxxxxxx |xxxxxxxxxxxxx |           70 |           70 |           70 |xxxxxxxxxxxxx |xxxxxxxxxxxxx |xxxxxxxxxxxxx |xxxxxxxxxxxxx |           70 |           70 |           70 |xxxxxxxxxxxxx |xxxxxxxxxxxxx |xxxxxxxxxxxxx |xxxxxxxxxxxxx |           72 |           72 |           72 |xxxxxxxxxxxxx |xxxxxxxxxxxxx |xxxxxxxxxxxxx |xxxxxxxxxxxxx |           72 |           72 |           72 |xxxxxxxxxxxxx |xxxxxxxxxxxxx |xxxxxxxxxxxxx |xxxxxxxxxxxxx |           72 |           72 |           72 |
bpred_bimod.ras_hits.PP                         61 |           61 |           61 |xxxxxxxxxxxxx |xxxxxxxxxxxxx |xxxxxxxxxxxxx |xxxxxxxxxxxxx |           69 |           69 |           69 |xxxxxxxxxxxxx |xxxxxxxxxxxxx |xxxxxxxxxxxxx |xxxxxxxxxxxxx |           69 |           69 |           69 |xxxxxxxxxxxxx |xxxxxxxxxxxxx |xxxxxxxxxxxxx |xxxxxxxxxxxxx |           69 |           69 |           69 |xxxxxxxxxxxxx |xxxxxxxxxxxxx |xxxxxxxxxxxxx |xxxxxxxxxxxxx |           69 |           69 |           69 |xxxxxxxxxxxxx |xxxxxxxxxxxxx |xxxxxxxxxxxxx |xxxxxxxxxxxxx |           69 |           69 |           69 |xxxxxxxxxxxxx |xxxxxxxxxxxxx |xxxxxxxxxxxxx |xxxxxxxxxxxxx |           69 |           69 |           69 |xxxxxxxxxxxxx |xxxxxxxxxxxxx |xxxxxxxxxxxxx |xxxxxxxxxxxxx |           69 |           69 |           69 |xxxxxxxxxxxxx |xxxxxxxxxxxxx |xxxxxxxxxxxxx |xxxxxxxxxxxxx |           72 |           72 |           72 |xxxxxxxxxxxxx |xxxxxxxxxxxxx |xxxxxxxxxxxxx |xxxxxxxxxxxxx |           72 |           72 |           72 |xxxxxxxxxxxxx |xxxxxxxxxxxxx |xxxxxxxxxxxxx |xxxxxxxxxxxxx |           72 |           72 |           72 |
bpred_bimod.ras_rate.PP                     1.0000 |       1.0000 |       1.0000 |xxxxxxxxxxxxx |xxxxxxxxxxxxx |xxxxxxxxxxxxx |xxxxxxxxxxxxx |       0.9857 |       0.9857 |       0.9857 |xxxxxxxxxxxxx |xxxxxxxxxxxxx |xxxxxxxxxxxxx |xxxxxxxxxxxxx |       0.9857 |       0.9857 |       0.9857 |xxxxxxxxxxxxx |xxxxxxxxxxxxx |xxxxxxxxxxxxx |xxxxxxxxxxxxx |       0.9857 |       0.9857 |       0.9857 |xxxxxxxxxxxxx |xxxxxxxxxxxxx |xxxxxxxxxxxxx |xxxxxxxxxxxxx |       0.9857 |       0.9857 |       0.9857 |xxxxxxxxxxxxx |xxxxxxxxxxxxx |xxxxxxxxxxxxx |xxxxxxxxxxxxx |       0.9857 |       0.9857 |       0.9857 |xxxxxxxxxxxxx |xxxxxxxxxxxxx |xxxxxxxxxxxxx |xxxxxxxxxxxxx |       0.9857 |       0.9857 |       0.9857 |xxxxxxxxxxxxx |xxxxxxxxxxxxx |xxxxxxxxxxxxx |xxxxxxxxxxxxx |       0.9857 |       0.9857 |       0.9857 |xxxxxxxxxxxxx |xxxxxxxxxxxxx |xxxxxxxxxxxxx |xxxxxxxxxxxxx |       1.0000 |       1.0000 |       1.0000 |xxxxxxxxxxxxx |xxxxxxxxxxxxx |xxxxxxxxxxxxx |xxxxxxxxxxxxx |       1.0000 |       1.0000 |       1.0000 |xxxxxxxxxxxxx |xxxxxxxxxxxxx |xxxxxxxxxxxxx |xxxxxxxxxxxxx |       1.0000 |       1.0000 |       1.0000 |
bpred_2lev.lookups                   xxxxxxxxxxxxx |xxxxxxxxxxxxx |xxxxxxxxxxxxx |         9239 |         9239 |         9239 |         9239 |xxxxxxxxxxxxx |xxxxxxxxxxxxx |xxxxxxxxxxxxx |        17471 |        17471 |        17471 |        17471 |xxxxxxxxxxxxx |xxxxxxxxxxxxx |xxxxxxxxxxxxx |        33855 |        33855 |        33855 |        33855 |xxxxxxxxxxxxx |xxxxxxxxxxxxx |xxxxxxxxxxxxx |        66623 |        66623 |        66623 |        66623 |xxxxxxxxxxxxx |xxxxxxxxxxxxx |xxxxxxxxxxxxx |       132159 |       132159 |       132159 |       132159 |xxxxxxxxxxxxx |xxxxxxxxxxxxx |xxxxxxxxxxxxx |       263231 |       263231 |       263231 |       263231 |xxxxxxxxxxxxx |xxxxxxxxxxxxx |xxxxxxxxxxxxx |       525375 |       525375 |       525375 |       525375 |xxxxxxxxxxxxx |xxxxxxxxxxxxx |xxxxxxxxxxxxx |      1049663 |      1049663 |      1049663 |      1049663 |xxxxxxxxxxxxx |xxxxxxxxxxxxx |xxxxxxxxxxxxx |      2099032 |      2099032 |      2099032 |      2099032 |xxxxxxxxxxxxx |xxxxxxxxxxxxx |xxxxxxxxxxxxx |      4196955 |      4196955 |      4196955 |      4196955 |xxxxxxxxxxxxx |xxxxxxxxxxxxx |xxxxxxxxxxxxx |      8392798 |      8392798 |      8392798 |      8392798 |
[...]
bpred_2lev.retstack_pops             xxxxxxxxxxxxx |xxxxxxxxxxxxx |xxxxxxxxxxxxx |           61 |           61 |           61 |           61 |xxxxxxxxxxxxx |xxxxxxxxxxxxx |xxxxxxxxxxxxx |           70 |           70 |           70 |           70 |xxxxxxxxxxxxx |xxxxxxxxxxxxx |xxxxxxxxxxxxx |           70 |           70 |           70 |           70 |xxxxxxxxxxxxx |xxxxxxxxxxxxx |xxxxxxxxxxxxx |           70 |           70 |           70 |           70 |xxxxxxxxxxxxx |xxxxxxxxxxxxx |xxxxxxxxxxxxx |           70 |           70 |           70 |           70 |xxxxxxxxxxxxx |xxxxxxxxxxxxx |xxxxxxxxxxxxx |           70 |           70 |           70 |           70 |xxxxxxxxxxxxx |xxxxxxxxxxxxx |xxxxxxxxxxxxx |           70 |           70 |           70 |           70 |xxxxxxxxxxxxx |xxxxxxxxxxxxx |xxxxxxxxxxxxx |           70 |           70 |           70 |           70 |xxxxxxxxxxxxx |xxxxxxxxxxxxx |xxxxxxxxxxxxx |           72 |           72 |           72 |           72 |xxxxxxxxxxxxx |xxxxxxxxxxxxx |xxxxxxxxxxxxx |           72 |           72 |           72 |           72 |xxxxxxxxxxxxx |xxxxxxxxxxxxx |xxxxxxxxxxxxx |           72 |           72 |           72 |           72 |
bpred_2lev.used_ras.PP               xxxxxxxxxxxxx |xxxxxxxxxxxxx |xxxxxxxxxxxxx |           61 |           61 |           61 |           61 |xxxxxxxxxxxxx |xxxxxxxxxxxxx |xxxxxxxxxxxxx |           70 |           70 |           70 |           70 |xxxxxxxxxxxxx |xxxxxxxxxxxxx |xxxxxxxxxxxxx |           70 |           70 |           70 |           70 |xxxxxxxxxxxxx |xxxxxxxxxxxxx |xxxxxxxxxxxxx |           70 |           70 |           70 |           70 |xxxxxxxxxxxxx |xxxxxxxxxxxxx |xxxxxxxxxxxxx |           70 |           70 |           70 |           70 |xxxxxxxxxxxxx |xxxxxxxxxxxxx |xxxxxxxxxxxxx |           70 |           70 |           70 |           70 |xxxxxxxxxxxxx |xxxxxxxxxxxxx |xxxxxxxxxxxxx |           70 |           70 |           70 |           70 |xxxxxxxxxxxxx |xxxxxxxxxxxxx |xxxxxxxxxxxxx |           70 |           70 |           70 |           70 |xxxxxxxxxxxxx |xxxxxxxxxxxxx |xxxxxxxxxxxxx |           72 |           72 |           72 |           72 |xxxxxxxxxxxxx |xxxxxxxxxxxxx |xxxxxxxxxxxxx |           72 |           72 |           72 |           72 |xxxxxxxxxxxxx |xxxxxxxxxxxxx |xxxxxxxxxxxxx |           72 |           72 |           72 |           72 |
bpred_2lev.ras_hits.PP               xxxxxxxxxxxxx |xxxxxxxxxxxxx |xxxxxxxxxxxxx |           61 |           61 |           61 |           61 |xxxxxxxxxxxxx |xxxxxxxxxxxxx |xxxxxxxxxxxxx |           69 |           69 |           69 |           69 |xxxxxxxxxxxxx |xxxxxxxxxxxxx |xxxxxxxxxxxxx |           69 |           69 |           69 |           69 |xxxxxxxxxxxxx |xxxxxxxxxxxxx |xxxxxxxxxxxxx |           69 |           69 |           69 |           69 |xxxxxxxxxxxxx |xxxxxxxxxxxxx |xxxxxxxxxxxxx |           69 |           69 |           69 |           69 |xxxxxxxxxxxxx |xxxxxxxxxxxxx |xxxxxxxxxxxxx |           69 |           69 |           69 |           69 |xxxxxxxxxxxxx |xxxxxxxxxxxxx |xxxxxxxxxxxxx |           69 |           69 |           69 |           69 |xxxxxxxxxxxxx |xxxxxxxxxxxxx |xxxxxxxxxxxxx |           69 |           69 |           69 |           69 |xxxxxxxxxxxxx |xxxxxxxxxxxxx |xxxxxxxxxxxxx |           72 |           72 |           72 |           72 |xxxxxxxxxxxxx |xxxxxxxxxxxxx |xxxxxxxxxxxxx |           72 |           72 |           72 |           72 |xxxxxxxxxxxxx |xxxxxxxxxxxxx |xxxxxxxxxxxxx |           72 |           72 |           72 |           72 |
bpred_2lev.ras_rate.PP               xxxxxxxxxxxxx |xxxxxxxxxxxxx |xxxxxxxxxxxxx |       1.0000 |       1.0000 |       1.0000 |       1.0000 |xxxxxxxxxxxxx |xxxxxxxxxxxxx |xxxxxxxxxxxxx |       0.9857 |       0.9857 |       0.9857 |       0.9857 |xxxxxxxxxxxxx |xxxxxxxxxxxxx |xxxxxxxxxxxxx |       0.9857 |       0.9857 |       0.9857 |       0.9857 |xxxxxxxxxxxxx |xxxxxxxxxxxxx |xxxxxxxxxxxxx |       0.9857 |       0.9857 |       0.9857 |       0.9857 |xxxxxxxxxxxxx |xxxxxxxxxxxxx |xxxxxxxxxxxxx |       0.9857 |       0.9857 |       0.9857 |       0.9857 |xxxxxxxxxxxxx |xxxxxxxxxxxxx |xxxxxxxxxxxxx |       0.9857 |       0.9857 |       0.9857 |       0.9857 |xxxxxxxxxxxxx |xxxxxxxxxxxxx |xxxxxxxxxxxxx |       0.9857 |       0.9857 |       0.9857 |       0.9857 |xxxxxxxxxxxxx |xxxxxxxxxxxxx |xxxxxxxxxxxxx |       0.9857 |       0.9857 |       0.9857 |       0.9857 |xxxxxxxxxxxxx |xxxxxxxxxxxxx |xxxxxxxxxxxxx |       1.0000 |       1.0000 |       1.0000 |       1.0000 |xxxxxxxxxxxxx |xxxxxxxxxxxxx |xxxxxxxxxxxxx |       1.0000 |       1.0000 |       1.0000 |       1.0000 |xxxxxxxxxxxxx |xxxxxxxxxxxxx |xxxxxxxxxxxxx |       1.0000 |       1.0000 |       1.0000 |       1.0000 |

Command list: 
	sslittle-na-sstrix-gcc -Wall -O3 -funroll-loops -finline-functions  -DRANDOM_SIZE=4096 -DOFFSET=0 -DSORT=memory_tuned_radixsort memory_tuned_radixsort70830853.c simpleMain.c -o memory_tuned_radixsort779013186
	sim-cache -cache:dl1 dl1:256:32:1:l -cache:dl2 dl2:131072:32:1:l -cache:il1 il1:256:32:1:l -cache:il2 dl2 memory_tuned_radixsort779013186
	sim-cache -cache:dl1 dl1:256:32:1:l -cache:dl2 dl2:65536:32:1:l -cache:il1 il1:256:32:1:l -cache:il2 dl2 memory_tuned_radixsort779013186
	sim-cache -cache:dl1 dl1:1:32:256:l -cache:dl2 dl2:1:32:131072:l -cache:il1 il1:1:32:256:l -cache:il2 dl2 memory_tuned_radixsort779013186
	sim-cache -cache:dl1 dl1:1:32:256:l -cache:dl2 dl2:1:32:65536:l -cache:il1 il1:1:32:256:l -cache:il2 dl2 memory_tuned_radixsort779013186
	sim-bpred -bpred bimod -bpred:bimod 512 memory_tuned_radixsort779013186
	sim-bpred -bpred bimod -bpred:bimod 1024 memory_tuned_radixsort779013186
	sim-bpred -bpred bimod -bpred:bimod 2048 memory_tuned_radixsort779013186
	sim-bpred -bpred 2lev -bpred:2lev 1 512 10 1 memory_tuned_radixsort779013186
	sim-bpred -bpred 2lev -bpred:2lev 1 1024 10 1 memory_tuned_radixsort779013186
	sim-bpred -bpred 2lev -bpred:2lev 1 2048 10 1 memory_tuned_radixsort779013186
	sim-bpred -bpred 2lev -bpred:2lev 1 4096 10 1 memory_tuned_radixsort779013186
	sslittle-na-sstrix-gcc -Wall -O3 -funroll-loops -finline-functions  -DRANDOM_SIZE=8192 -DOFFSET=0 -DSORT=memory_tuned_radixsort memory_tuned_radixsort70830853.c simpleMain.c -o memory_tuned_radixsort779013186
	sim-cache -cache:dl1 dl1:256:32:1:l -cache:dl2 dl2:131072:32:1:l -cache:il1 il1:256:32:1:l -cache:il2 dl2 memory_tuned_radixsort779013186
	sim-cache -cache:dl1 dl1:256:32:1:l -cache:dl2 dl2:65536:32:1:l -cache:il1 il1:256:32:1:l -cache:il2 dl2 memory_tuned_radixsort779013186
	sim-cache -cache:dl1 dl1:1:32:256:l -cache:dl2 dl2:1:32:131072:l -cache:il1 il1:1:32:256:l -cache:il2 dl2 memory_tuned_radixsort779013186
	sim-cache -cache:dl1 dl1:1:32:256:l -cache:dl2 dl2:1:32:65536:l -cache:il1 il1:1:32:256:l -cache:il2 dl2 memory_tuned_radixsort779013186
	sim-bpred -bpred bimod -bpred:bimod 512 memory_tuned_radixsort779013186
	sim-bpred -bpred bimod -bpred:bimod 1024 memory_tuned_radixsort779013186
	sim-bpred -bpred bimod -bpred:bimod 2048 memory_tuned_radixsort779013186
	sim-bpred -bpred 2lev -bpred:2lev 1 512 10 1 memory_tuned_radixsort779013186
	sim-bpred -bpred 2lev -bpred:2lev 1 1024 10 1 memory_tuned_radixsort779013186
	sim-bpred -bpred 2lev -bpred:2lev 1 2048 10 1 memory_tuned_radixsort779013186
	sim-bpred -bpred 2lev -bpred:2lev 1 4096 10 1 memory_tuned_radixsort779013186
	sslittle-na-sstrix-gcc -Wall -O3 -funroll-loops -finline-functions  -DRANDOM_SIZE=16384 -DOFFSET=0 -DSORT=memory_tuned_radixsort memory_tuned_radixsort70830853.c simpleMain.c -o memory_tuned_radixsort779013186
	sim-cache -cache:dl1 dl1:256:32:1:l -cache:dl2 dl2:131072:32:1:l -cache:il1 il1:256:32:1:l -cache:il2 dl2 memory_tuned_radixsort779013186
	sim-cache -cache:dl1 dl1:256:32:1:l -cache:dl2 dl2:65536:32:1:l -cache:il1 il1:256:32:1:l -cache:il2 dl2 memory_tuned_radixsort779013186
	sim-cache -cache:dl1 dl1:1:32:256:l -cache:dl2 dl2:1:32:131072:l -cache:il1 il1:1:32:256:l -cache:il2 dl2 memory_tuned_radixsort779013186
	sim-cache -cache:dl1 dl1:1:32:256:l -cache:dl2 dl2:1:32:65536:l -cache:il1 il1:1:32:256:l -cache:il2 dl2 memory_tuned_radixsort779013186
	sim-bpred -bpred bimod -bpred:bimod 512 memory_tuned_radixsort779013186
	sim-bpred -bpred bimod -bpred:bimod 1024 memory_tuned_radixsort779013186
	sim-bpred -bpred bimod -bpred:bimod 2048 memory_tuned_radixsort779013186
	sim-bpred -bpred 2lev -bpred:2lev 1 512 10 1 memory_tuned_radixsort779013186
	sim-bpred -bpred 2lev -bpred:2lev 1 1024 10 1 memory_tuned_radixsort779013186
	sim-bpred -bpred 2lev -bpred:2lev 1 2048 10 1 memory_tuned_radixsort779013186
	sim-bpred -bpred 2lev -bpred:2lev 1 4096 10 1 memory_tuned_radixsort779013186
	sslittle-na-sstrix-gcc -Wall -O3 -funroll-loops -finline-functions  -DRANDOM_SIZE=32768 -DOFFSET=0 -DSORT=memory_tuned_radixsort memory_tuned_radixsort70830853.c simpleMain.c -o memory_tuned_radixsort779013186
	sim-cache -cache:dl1 dl1:256:32:1:l -cache:dl2 dl2:131072:32:1:l -cache:il1 il1:256:32:1:l -cache:il2 dl2 memory_tuned_radixsort779013186
	sim-cache -cache:dl1 dl1:256:32:1:l -cache:dl2 dl2:65536:32:1:l -cache:il1 il1:256:32:1:l -cache:il2 dl2 memory_tuned_radixsort779013186
	sim-cache -cache:dl1 dl1:1:32:256:l -cache:dl2 dl2:1:32:131072:l -cache:il1 il1:1:32:256:l -cache:il2 dl2 memory_tuned_radixsort779013186
	sim-cache -cache:dl1 dl1:1:32:256:l -cache:dl2 dl2:1:32:65536:l -cache:il1 il1:1:32:256:l -cache:il2 dl2 memory_tuned_radixsort779013186
	sim-bpred -bpred bimod -bpred:bimod 512 memory_tuned_radixsort779013186
	sim-bpred -bpred bimod -bpred:bimod 1024 memory_tuned_radixsort779013186
	sim-bpred -bpred bimod -bpred:bimod 2048 memory_tuned_radixsort779013186
	sim-bpred -bpred 2lev -bpred:2lev 1 512 10 1 memory_tuned_radixsort779013186
	sim-bpred -bpred 2lev -bpred:2lev 1 1024 10 1 memory_tuned_radixsort779013186
	sim-bpred -bpred 2lev -bpred:2lev 1 2048 10 1 memory_tuned_radixsort779013186
	sim-bpred -bpred 2lev -bpred:2lev 1 4096 10 1 memory_tuned_radixsort779013186
	sslittle-na-sstrix-gcc -Wall -O3 -funroll-loops -finline-functions  -DRANDOM_SIZE=65536 -DOFFSET=0 -DSORT=memory_tuned_radixsort memory_tuned_radixsort70830853.c simpleMain.c -o memory_tuned_radixsort779013186
	sim-cache -cache:dl1 dl1:256:32:1:l -cache:dl2 dl2:131072:32:1:l -cache:il1 il1:256:32:1:l -cache:il2 dl2 memory_tuned_radixsort779013186
	sim-cache -cache:dl1 dl1:256:32:1:l -cache:dl2 dl2:65536:32:1:l -cache:il1 il1:256:32:1:l -cache:il2 dl2 memory_tuned_radixsort779013186
	sim-cache -cache:dl1 dl1:1:32:256:l -cache:dl2 dl2:1:32:131072:l -cache:il1 il1:1:32:256:l -cache:il2 dl2 memory_tuned_radixsort779013186
	sim-cache -cache:dl1 dl1:1:32:256:l -cache:dl2 dl2:1:32:65536:l -cache:il1 il1:1:32:256:l -cache:il2 dl2 memory_tuned_radixsort779013186
	sim-bpred -bpred bimod -bpred:bimod 512 memory_tuned_radixsort779013186
	sim-bpred -bpred bimod -bpred:bimod 1024 memory_tuned_radixsort779013186
	sim-bpred -bpred bimod -bpred:bimod 2048 memory_tuned_radixsort779013186
	sim-bpred -bpred 2lev -bpred:2lev 1 512 10 1 memory_tuned_radixsort779013186
	sim-bpred -bpred 2lev -bpred:2lev 1 1024 10 1 memory_tuned_radixsort779013186
	sim-bpred -bpred 2lev -bpred:2lev 1 2048 10 1 memory_tuned_radixsort779013186
	sim-bpred -bpred 2lev -bpred:2lev 1 4096 10 1 memory_tuned_radixsort779013186
	sslittle-na-sstrix-gcc -Wall -O3 -funroll-loops -finline-functions  -DRANDOM_SIZE=131072 -DOFFSET=0 -DSORT=memory_tuned_radixsort memory_tuned_radixsort70830853.c simpleMain.c -o memory_tuned_radixsort779013186
	sim-cache -cache:dl1 dl1:256:32:1:l -cache:dl2 dl2:131072:32:1:l -cache:il1 il1:256:32:1:l -cache:il2 dl2 memory_tuned_radixsort779013186
	sim-cache -cache:dl1 dl1:256:32:1:l -cache:dl2 dl2:65536:32:1:l -cache:il1 il1:256:32:1:l -cache:il2 dl2 memory_tuned_radixsort779013186
	sim-cache -cache:dl1 dl1:1:32:256:l -cache:dl2 dl2:1:32:131072:l -cache:il1 il1:1:32:256:l -cache:il2 dl2 memory_tuned_radixsort779013186
	sim-cache -cache:dl1 dl1:1:32:256:l -cache:dl2 dl2:1:32:65536:l -cache:il1 il1:1:32:256:l -cache:il2 dl2 memory_tuned_radixsort779013186
	sim-bpred -bpred bimod -bpred:bimod 512 memory_tuned_radixsort779013186
	sim-bpred -bpred bimod -bpred:bimod 1024 memory_tuned_radixsort779013186
	sim-bpred -bpred bimod -bpred:bimod 2048 memory_tuned_radixsort779013186
	sim-bpred -bpred 2lev -bpred:2lev 1 512 10 1 memory_tuned_radixsort779013186
	sim-bpred -bpred 2lev -bpred:2lev 1 1024 10 1 memory_tuned_radixsort779013186
	sim-bpred -bpred 2lev -bpred:2lev 1 2048 10 1 memory_tuned_radixsort779013186
	sim-bpred -bpred 2lev -bpred:2lev 1 4096 10 1 memory_tuned_radixsort779013186
	sslittle-na-sstrix-gcc -Wall -O3 -funroll-loops -finline-functions  -DRANDOM_SIZE=262144 -DOFFSET=0 -DSORT=memory_tuned_radixsort memory_tuned_radixsort70830853.c simpleMain.c -o memory_tuned_radixsort779013186
	sim-cache -cache:dl1 dl1:256:32:1:l -cache:dl2 dl2:131072:32:1:l -cache:il1 il1:256:32:1:l -cache:il2 dl2 memory_tuned_radixsort779013186
	sim-cache -cache:dl1 dl1:256:32:1:l -cache:dl2 dl2:65536:32:1:l -cache:il1 il1:256:32:1:l -cache:il2 dl2 memory_tuned_radixsort779013186
	sim-cache -cache:dl1 dl1:1:32:256:l -cache:dl2 dl2:1:32:131072:l -cache:il1 il1:1:32:256:l -cache:il2 dl2 memory_tuned_radixsort779013186
	sim-cache -cache:dl1 dl1:1:32:256:l -cache:dl2 dl2:1:32:65536:l -cache:il1 il1:1:32:256:l -cache:il2 dl2 memory_tuned_radixsort779013186
	sim-bpred -bpred bimod -bpred:bimod 512 memory_tuned_radixsort779013186
	sim-bpred -bpred bimod -bpred:bimod 1024 memory_tuned_radixsort779013186
	sim-bpred -bpred bimod -bpred:bimod 2048 memory_tuned_radixsort779013186
	sim-bpred -bpred 2lev -bpred:2lev 1 512 10 1 memory_tuned_radixsort779013186
	sim-bpred -bpred 2lev -bpred:2lev 1 1024 10 1 memory_tuned_radixsort779013186
	sim-bpred -bpred 2lev -bpred:2lev 1 2048 10 1 memory_tuned_radixsort779013186
	sim-bpred -bpred 2lev -bpred:2lev 1 4096 10 1 memory_tuned_radixsort779013186
	sslittle-na-sstrix-gcc -Wall -O3 -funroll-loops -finline-functions  -DRANDOM_SIZE=524288 -DOFFSET=0 -DSORT=memory_tuned_radixsort memory_tuned_radixsort70830853.c simpleMain.c -o memory_tuned_radixsort779013186
	sim-cache -cache:dl1 dl1:256:32:1:l -cache:dl2 dl2:131072:32:1:l -cache:il1 il1:256:32:1:l -cache:il2 dl2 memory_tuned_radixsort779013186
	sim-cache -cache:dl1 dl1:256:32:1:l -cache:dl2 dl2:65536:32:1:l -cache:il1 il1:256:32:1:l -cache:il2 dl2 memory_tuned_radixsort779013186
	sim-cache -cache:dl1 dl1:1:32:256:l -cache:dl2 dl2:1:32:131072:l -cache:il1 il1:1:32:256:l -cache:il2 dl2 memory_tuned_radixsort779013186
	sim-cache -cache:dl1 dl1:1:32:256:l -cache:dl2 dl2:1:32:65536:l -cache:il1 il1:1:32:256:l -cache:il2 dl2 memory_tuned_radixsort779013186
	sim-bpred -bpred bimod -bpred:bimod 512 memory_tuned_radixsort779013186
	sim-bpred -bpred bimod -bpred:bimod 1024 memory_tuned_radixsort779013186
	sim-bpred -bpred bimod -bpred:bimod 2048 memory_tuned_radixsort779013186
	sim-bpred -bpred 2lev -bpred:2lev 1 512 10 1 memory_tuned_radixsort779013186
	sim-bpred -bpred 2lev -bpred:2lev 1 1024 10 1 memory_tuned_radixsort779013186
	sim-bpred -bpred 2lev -bpred:2lev 1 2048 10 1 memory_tuned_radixsort779013186
	sim-bpred -bpred 2lev -bpred:2lev 1 4096 10 1 memory_tuned_radixsort779013186
	sslittle-na-sstrix-gcc -Wall -O3 -funroll-loops -finline-functions  -DRANDOM_SIZE=1048576 -DOFFSET=0 -DSORT=memory_tuned_radixsort memory_tuned_radixsort70830853.c simpleMain.c -o memory_tuned_radixsort779013186
	sim-cache -cache:dl1 dl1:256:32:1:l -cache:dl2 dl2:131072:32:1:l -cache:il1 il1:256:32:1:l -cache:il2 dl2 memory_tuned_radixsort779013186
	sim-cache -cache:dl1 dl1:256:32:1:l -cache:dl2 dl2:65536:32:1:l -cache:il1 il1:256:32:1:l -cache:il2 dl2 memory_tuned_radixsort779013186
	sim-cache -cache:dl1 dl1:1:32:256:l -cache:dl2 dl2:1:32:131072:l -cache:il1 il1:1:32:256:l -cache:il2 dl2 memory_tuned_radixsort779013186
	sim-cache -cache:dl1 dl1:1:32:256:l -cache:dl2 dl2:1:32:65536:l -cache:il1 il1:1:32:256:l -cache:il2 dl2 memory_tuned_radixsort779013186
	sim-bpred -bpred bimod -bpred:bimod 512 memory_tuned_radixsort779013186
	sim-bpred -bpred bimod -bpred:bimod 1024 memory_tuned_radixsort779013186
	sim-bpred -bpred bimod -bpred:bimod 2048 memory_tuned_radixsort779013186
	sim-bpred -bpred 2lev -bpred:2lev 1 512 10 1 memory_tuned_radixsort779013186
	sim-bpred -bpred 2lev -bpred:2lev 1 1024 10 1 memory_tuned_radixsort779013186
	sim-bpred -bpred 2lev -bpred:2lev 1 2048 10 1 memory_tuned_radixsort779013186
	sim-bpred -bpred 2lev -bpred:2lev 1 4096 10 1 memory_tuned_radixsort779013186
	sslittle-na-sstrix-gcc -Wall -O3 -funroll-loops -finline-functions  -DRANDOM_SIZE=2097152 -DOFFSET=0 -DSORT=memory_tuned_radixsort memory_tuned_radixsort70830853.c simpleMain.c -o memory_tuned_radixsort779013186
	sim-cache -cache:dl1 dl1:256:32:1:l -cache:dl2 dl2:131072:32:1:l -cache:il1 il1:256:32:1:l -cache:il2 dl2 memory_tuned_radixsort779013186
	sim-cache -cache:dl1 dl1:256:32:1:l -cache:dl2 dl2:65536:32:1:l -cache:il1 il1:256:32:1:l -cache:il2 dl2 memory_tuned_radixsort779013186
	sim-cache -cache:dl1 dl1:1:32:256:l -cache:dl2 dl2:1:32:131072:l -cache:il1 il1:1:32:256:l -cache:il2 dl2 memory_tuned_radixsort779013186
	sim-cache -cache:dl1 dl1:1:32:256:l -cache:dl2 dl2:1:32:65536:l -cache:il1 il1:1:32:256:l -cache:il2 dl2 memory_tuned_radixsort779013186
	sim-bpred -bpred bimod -bpred:bimod 512 memory_tuned_radixsort779013186
	sim-bpred -bpred bimod -bpred:bimod 1024 memory_tuned_radixsort779013186
	sim-bpred -bpred bimod -bpred:bimod 2048 memory_tuned_radixsort779013186
	sim-bpred -bpred 2lev -bpred:2lev 1 512 10 1 memory_tuned_radixsort779013186
	sim-bpred -bpred 2lev -bpred:2lev 1 1024 10 1 memory_tuned_radixsort779013186
	sim-bpred -bpred 2lev -bpred:2lev 1 2048 10 1 memory_tuned_radixsort779013186
	sim-bpred -bpred 2lev -bpred:2lev 1 4096 10 1 memory_tuned_radixsort779013186
	sslittle-na-sstrix-gcc -Wall -O3 -funroll-loops -finline-functions  -DRANDOM_SIZE=4194304 -DOFFSET=0 -DSORT=memory_tuned_radixsort memory_tuned_radixsort70830853.c simpleMain.c -o memory_tuned_radixsort779013186
	sim-cache -cache:dl1 dl1:256:32:1:l -cache:dl2 dl2:131072:32:1:l -cache:il1 il1:256:32:1:l -cache:il2 dl2 memory_tuned_radixsort779013186
	sim-cache -cache:dl1 dl1:256:32:1:l -cache:dl2 dl2:65536:32:1:l -cache:il1 il1:256:32:1:l -cache:il2 dl2 memory_tuned_radixsort779013186
	sim-cache -cache:dl1 dl1:1:32:256:l -cache:dl2 dl2:1:32:131072:l -cache:il1 il1:1:32:256:l -cache:il2 dl2 memory_tuned_radixsort779013186
	sim-cache -cache:dl1 dl1:1:32:256:l -cache:dl2 dl2:1:32:65536:l -cache:il1 il1:1:32:256:l -cache:il2 dl2 memory_tuned_radixsort779013186
	sim-bpred -bpred bimod -bpred:bimod 512 memory_tuned_radixsort779013186
	sim-bpred -bpred bimod -bpred:bimod 1024 memory_tuned_radixsort779013186
	sim-bpred -bpred bimod -bpred:bimod 2048 memory_tuned_radixsort779013186
	sim-bpred -bpred 2lev -bpred:2lev 1 512 10 1 memory_tuned_radixsort779013186
	sim-bpred -bpred 2lev -bpred:2lev 1 1024 10 1 memory_tuned_radixsort779013186
	sim-bpred -bpred 2lev -bpred:2lev 1 2048 10 1 memory_tuned_radixsort779013186
	sim-bpred -bpred 2lev -bpred:2lev 1 4096 10 1 memory_tuned_radixsort779013186
