Sat Jul  2 20:39:46 2005
Run as: "./do_simple -c random.org3 -o 3 memory_tuned_quicksort"
-------------------------------------------------------------------------------------------------
sim-cache                                     4096 |         4096 |         4096 |         4096 |         8192 |         8192 |         8192 |         8192 |        16384 |        16384 |        16384 |        16384 |        32768 |        32768 |        32768 |        32768 |        65536 |        65536 |        65536 |        65536 |       131072 |       131072 |       131072 |       131072 |       262144 |       262144 |       262144 |       262144 |       524288 |       524288 |       524288 |       524288 |      1048576 |      1048576 |      1048576 |      1048576 |      2097152 |      2097152 |      2097152 |      2097152 |      4194304 |      4194304 |      4194304 |      4194304 |
-cache:dl1 dl1:256:32:1:l -cache:dl2 dl2:131072:32:1:l -cache:il1 il1:256:32:1:l -cache:il2 dl2
-cache:dl1 dl1:256:32:1:l -cache:dl2 dl2:65536:32:1:l -cache:il1 il1:256:32:1:l -cache:il2 dl2
-cache:dl1 dl1:1:32:256:l -cache:dl2 dl2:1:32:131072:l -cache:il1 il1:1:32:256:l -cache:il2 dl2
-cache:dl1 dl1:1:32:256:l -cache:dl2 dl2:1:32:65536:l -cache:il1 il1:1:32:256:l -cache:il2 dl2
-------------------------------------------------------------------------------------------------
sim_num_insn                                466685 |       466685 |       466685 |       466685 |       988558 |       988558 |       988558 |       988558 |      2141462 |      2141462 |      2141462 |      2141462 |      4576135 |      4576135 |      4576135 |      4576135 |      9793781 |      9793781 |      9793781 |      9793781 |     21081013 |     21081013 |     21081013 |     21081013 |     43878702 |     43878702 |     43878702 |     43878702 |     92746861 |     92746861 |     92746861 |     92746861 |    198775046 |    198775046 |    198775046 |    198775046 |    408441238 |    408441238 |    408441238 |    408441238 |    865453282 |    865453282 |    865453282 |    865453282 |
sim_num_refs                                122848 |       122848 |       122848 |       122848 |       257822 |       257822 |       257822 |       257822 |       549081 |       549081 |       549081 |       549081 |      1163913 |      1163913 |      1163913 |      1163913 |      2473861 |      2473861 |      2473861 |      2473861 |      5262063 |      5262063 |      5262063 |      5262063 |     10980942 |     10980942 |     10980942 |     10980942 |     23101385 |     23101385 |     23101385 |     23101385 |     48953384 |     48953384 |     48953384 |     48953384 |    101187282 |    101187282 |    101187282 |    101187282 |    212870538 |    212870538 |    212870538 |    212870538 |
sim_elapsed_time                                 1 |            1 |            7 |            4 |            1 |            1 |           10 |            5 |            1 |            1 |           16 |            8 |            1 |            1 |           26 |           14 |            3 |            2 |           48 |           24 |            6 |            5 |           89 |           44 |           11 |           12 |          162 |           76 |           25 |           24 |          280 |          110 |           53 |           52 |          390 |          139 |          107 |          107 |          449 |          197 |          227 |          226 |          577 |          326 |
sim_inst_rate                          466685.0000 |  466685.0000 |   66669.2857 |  116671.2500 |  988558.0000 |  988558.0000 |   98855.8000 |  197711.6000 | 2141462.0000 | 2141462.0000 |  133841.3750 |  267682.7500 | 4576135.0000 | 4576135.0000 |  176005.1923 |  326866.7857 | 3264593.6667 | 4896890.5000 |  204037.1042 |  408074.2083 | 3513502.1667 | 4216202.6000 |  236865.3146 |  479113.9318 | 3988972.9091 | 3656558.5000 |  270856.1852 |  577351.3421 | 3709874.4400 | 3864452.5417 |  331238.7893 |  843153.2818 | 3750472.5660 | 3822597.0385 |  509679.6051 | 1430036.3022 | 3817207.8318 | 3817207.8318 |  909668.6815 | 2073305.7766 | 3812569.5242 | 3829439.3009 | 1499919.0329 | 2654764.6687 |
il1.accesses                                466685 |       466685 |       466685 |       466685 |       988558 |       988558 |       988558 |       988558 |      2141462 |      2141462 |      2141462 |      2141462 |      4576135 |      4576135 |      4576135 |      4576135 |      9793781 |      9793781 |      9793781 |      9793781 |     21081013 |     21081013 |     21081013 |     21081013 |     43878702 |     43878702 |     43878702 |     43878702 |     92746861 |     92746861 |     92746861 |     92746861 |    198775046 |    198775046 |    198775046 |    198775046 |    408441238 |    408441238 |    408441238 |    408441238 |    865453282 |    865453282 |    865453282 |    865453282 |
il1.hits                                    466226 |       466226 |       466255 |       466255 |       988098 |       988098 |       988127 |       988127 |      2140990 |      2140990 |      2141026 |      2141026 |      4575676 |      4575676 |      4575703 |      4575703 |      9793324 |      9793324 |      9793351 |      9793351 |     21080555 |     21080555 |     21080582 |     21080582 |     43878250 |     43878250 |     43878278 |     43878278 |     92746402 |     92746402 |     92746429 |     92746429 |    198774594 |    198774594 |    198774622 |    198774622 |    408440786 |    408440786 |    408440814 |    408440814 |    865452826 |    865452826 |    865452853 |    865452853 |
il1.misses                                     459 |          459 |          430 |          430 |          460 |          460 |          431 |          431 |          472 |          472 |          436 |          436 |          459 |          459 |          432 |          432 |          457 |          457 |          430 |          430 |          458 |          458 |          431 |          431 |          452 |          452 |          424 |          424 |          459 |          459 |          432 |          432 |          452 |          452 |          424 |          424 |          452 |          452 |          424 |          424 |          456 |          456 |          429 |          429 |
il1.replacements                               220 |          220 |          174 |          174 |          221 |          221 |          175 |          175 |          233 |          233 |          180 |          180 |          220 |          220 |          176 |          176 |          218 |          218 |          174 |          174 |          220 |          220 |          175 |          175 |          214 |          214 |          168 |          168 |          221 |          221 |          176 |          176 |          214 |          214 |          168 |          168 |          214 |          214 |          168 |          168 |          218 |          218 |          173 |          173 |
il1.writebacks                                   0 |            0 |            0 |            0 |            0 |            0 |            0 |            0 |            0 |            0 |            0 |            0 |            0 |            0 |            0 |            0 |            0 |            0 |            0 |            0 |            0 |            0 |            0 |            0 |            0 |            0 |            0 |            0 |            0 |            0 |            0 |            0 |            0 |            0 |            0 |            0 |            0 |            0 |            0 |            0 |            0 |            0 |            0 |            0 |
il1.invalidations                                0 |            0 |            0 |            0 |            0 |            0 |            0 |            0 |            0 |            0 |            0 |            0 |            0 |            0 |            0 |            0 |            0 |            0 |            0 |            0 |            0 |            0 |            0 |            0 |            0 |            0 |            0 |            0 |            0 |            0 |            0 |            0 |            0 |            0 |            0 |            0 |            0 |            0 |            0 |            0 |            0 |            0 |            0 |            0 |
il1.miss_rate                               0.0010 |       0.0010 |       0.0009 |       0.0009 |       0.0005 |       0.0005 |       0.0004 |       0.0004 |       0.0002 |       0.0002 |       0.0002 |       0.0002 |       0.0001 |       0.0001 |       0.0001 |       0.0001 |       0.0000 |       0.0000 |       0.0000 |       0.0000 |       0.0000 |       0.0000 |       0.0000 |       0.0000 |       0.0000 |       0.0000 |       0.0000 |       0.0000 |       0.0000 |       0.0000 |       0.0000 |       0.0000 |       0.0000 |       0.0000 |       0.0000 |       0.0000 |       0.0000 |       0.0000 |       0.0000 |       0.0000 |       0.0000 |       0.0000 |       0.0000 |       0.0000 |
il1.repl_rate                               0.0005 |       0.0005 |       0.0004 |       0.0004 |       0.0002 |       0.0002 |       0.0002 |       0.0002 |       0.0001 |       0.0001 |       0.0001 |       0.0001 |       0.0000 |       0.0000 |       0.0000 |       0.0000 |       0.0000 |       0.0000 |       0.0000 |       0.0000 |       0.0000 |       0.0000 |       0.0000 |       0.0000 |       0.0000 |       0.0000 |       0.0000 |       0.0000 |       0.0000 |       0.0000 |       0.0000 |       0.0000 |       0.0000 |       0.0000 |       0.0000 |       0.0000 |       0.0000 |       0.0000 |       0.0000 |       0.0000 |       0.0000 |       0.0000 |       0.0000 |       0.0000 |
il1.wb_rate                                 0.0000 |       0.0000 |       0.0000 |       0.0000 |       0.0000 |       0.0000 |       0.0000 |       0.0000 |       0.0000 |       0.0000 |       0.0000 |       0.0000 |       0.0000 |       0.0000 |       0.0000 |       0.0000 |       0.0000 |       0.0000 |       0.0000 |       0.0000 |       0.0000 |       0.0000 |       0.0000 |       0.0000 |       0.0000 |       0.0000 |       0.0000 |       0.0000 |       0.0000 |       0.0000 |       0.0000 |       0.0000 |       0.0000 |       0.0000 |       0.0000 |       0.0000 |       0.0000 |       0.0000 |       0.0000 |       0.0000 |       0.0000 |       0.0000 |       0.0000 |       0.0000 |
il1.inv_rate                                0.0000 |       0.0000 |       0.0000 |       0.0000 |       0.0000 |       0.0000 |       0.0000 |       0.0000 |       0.0000 |       0.0000 |       0.0000 |       0.0000 |       0.0000 |       0.0000 |       0.0000 |       0.0000 |       0.0000 |       0.0000 |       0.0000 |       0.0000 |       0.0000 |       0.0000 |       0.0000 |       0.0000 |       0.0000 |       0.0000 |       0.0000 |       0.0000 |       0.0000 |       0.0000 |       0.0000 |       0.0000 |       0.0000 |       0.0000 |       0.0000 |       0.0000 |       0.0000 |       0.0000 |       0.0000 |       0.0000 |       0.0000 |       0.0000 |       0.0000 |       0.0000 |
dl1.accesses                                139314 |       139314 |       139314 |       139314 |       290672 |       290672 |       290672 |       290672 |       614699 |       614699 |       614699 |       614699 |      1295067 |      1295067 |      1295067 |      1295067 |      2736087 |      2736087 |      2736087 |      2736087 |      5786433 |      5786433 |      5786433 |      5786433 |     12029600 |     12029600 |     12029600 |     12029600 |     25198619 |     25198619 |     25198619 |     25198619 |     53147770 |     53147770 |     53147770 |     53147770 |    109575972 |    109575972 |    109575972 |    109575972 |    229647836 |    229647836 |    229647836 |    229647836 |
dl1.hits                                    137224 |       137224 |       137266 |       137266 |       285983 |       285983 |       286068 |       286068 |       602948 |       602948 |       602873 |       602873 |      1267840 |      1267840 |      1267431 |      1267431 |      2668747 |      2668747 |      2668488 |      2668488 |      5626441 |      5626441 |      5627477 |      5627477 |     11689722 |     11689722 |     11691035 |     11691035 |     24430259 |     24430259 |     24437408 |     24437408 |     51375491 |     51375491 |     51393972 |     51393972 |    105905743 |    105905743 |    105952825 |    105952825 |    221442965 |    221442965 |    221551559 |    221551559 |
dl1.misses                                    2090 |         2090 |         2048 |         2048 |         4689 |         4689 |         4604 |         4604 |        11751 |        11751 |        11826 |        11826 |        27227 |        27227 |        27636 |        27636 |        67340 |        67340 |        67599 |        67599 |       159992 |       159992 |       158956 |       158956 |       339878 |       339878 |       338565 |       338565 |       768360 |       768360 |       761211 |       761211 |      1772279 |      1772279 |      1753798 |      1753798 |      3670229 |      3670229 |      3623147 |      3623147 |      8204871 |      8204871 |      8096277 |      8096277 |
dl1.replacements                              1834 |         1834 |         1792 |         1792 |         4433 |         4433 |         4348 |         4348 |        11495 |        11495 |        11570 |        11570 |        26971 |        26971 |        27380 |        27380 |        67084 |        67084 |        67343 |        67343 |       159736 |       159736 |       158700 |       158700 |       339622 |       339622 |       338309 |       338309 |       768104 |       768104 |       760955 |       760955 |      1772023 |      1772023 |      1753542 |      1753542 |      3669973 |      3669973 |      3622891 |      3622891 |      8204615 |      8204615 |      8096021 |      8096021 |
dl1.writebacks                                1797 |         1797 |         1780 |         1780 |         4348 |         4348 |         4315 |         4315 |        10992 |        10992 |        11127 |        11127 |        25722 |        25722 |        26125 |        26125 |        62229 |        62229 |        62867 |        62867 |       142731 |       142731 |       143202 |       143202 |       315722 |       315722 |       317326 |       317326 |       709248 |       709248 |       709540 |       709540 |      1571432 |      1571432 |      1571064 |      1571064 |      3361918 |      3361918 |      3355057 |      3355057 |      7326047 |      7326047 |      7305574 |      7305574 |
dl1.invalidations                                0 |            0 |            0 |            0 |            0 |            0 |            0 |            0 |            0 |            0 |            0 |            0 |            0 |            0 |            0 |            0 |            0 |            0 |            0 |            0 |            0 |            0 |            0 |            0 |            0 |            0 |            0 |            0 |            0 |            0 |            0 |            0 |            0 |            0 |            0 |            0 |            0 |            0 |            0 |            0 |            0 |            0 |            0 |            0 |
dl1.miss_rate                               0.0150 |       0.0150 |       0.0147 |       0.0147 |       0.0161 |       0.0161 |       0.0158 |       0.0158 |       0.0191 |       0.0191 |       0.0192 |       0.0192 |       0.0210 |       0.0210 |       0.0213 |       0.0213 |       0.0246 |       0.0246 |       0.0247 |       0.0247 |       0.0276 |       0.0276 |       0.0275 |       0.0275 |       0.0283 |       0.0283 |       0.0281 |       0.0281 |       0.0305 |       0.0305 |       0.0302 |       0.0302 |       0.0333 |       0.0333 |       0.0330 |       0.0330 |       0.0335 |       0.0335 |       0.0331 |       0.0331 |       0.0357 |       0.0357 |       0.0353 |       0.0353 |
dl1.repl_rate                               0.0132 |       0.0132 |       0.0129 |       0.0129 |       0.0153 |       0.0153 |       0.0150 |       0.0150 |       0.0187 |       0.0187 |       0.0188 |       0.0188 |       0.0208 |       0.0208 |       0.0211 |       0.0211 |       0.0245 |       0.0245 |       0.0246 |       0.0246 |       0.0276 |       0.0276 |       0.0274 |       0.0274 |       0.0282 |       0.0282 |       0.0281 |       0.0281 |       0.0305 |       0.0305 |       0.0302 |       0.0302 |       0.0333 |       0.0333 |       0.0330 |       0.0330 |       0.0335 |       0.0335 |       0.0331 |       0.0331 |       0.0357 |       0.0357 |       0.0353 |       0.0353 |
dl1.wb_rate                                 0.0129 |       0.0129 |       0.0128 |       0.0128 |       0.0150 |       0.0150 |       0.0148 |       0.0148 |       0.0179 |       0.0179 |       0.0181 |       0.0181 |       0.0199 |       0.0199 |       0.0202 |       0.0202 |       0.0227 |       0.0227 |       0.0230 |       0.0230 |       0.0247 |       0.0247 |       0.0247 |       0.0247 |       0.0262 |       0.0262 |       0.0264 |       0.0264 |       0.0281 |       0.0281 |       0.0282 |       0.0282 |       0.0296 |       0.0296 |       0.0296 |       0.0296 |       0.0307 |       0.0307 |       0.0306 |       0.0306 |       0.0319 |       0.0319 |       0.0318 |       0.0318 |
dl1.inv_rate                                0.0000 |       0.0000 |       0.0000 |       0.0000 |       0.0000 |       0.0000 |       0.0000 |       0.0000 |       0.0000 |       0.0000 |       0.0000 |       0.0000 |       0.0000 |       0.0000 |       0.0000 |       0.0000 |       0.0000 |       0.0000 |       0.0000 |       0.0000 |       0.0000 |       0.0000 |       0.0000 |       0.0000 |       0.0000 |       0.0000 |       0.0000 |       0.0000 |       0.0000 |       0.0000 |       0.0000 |       0.0000 |       0.0000 |       0.0000 |       0.0000 |       0.0000 |       0.0000 |       0.0000 |       0.0000 |       0.0000 |       0.0000 |       0.0000 |       0.0000 |       0.0000 |
dl2.accesses                                  4346 |         4346 |         4258 |         4258 |         9497 |         9497 |         9350 |         9350 |        23215 |        23215 |        23389 |        23389 |        53408 |        53408 |        54193 |        54193 |       130026 |       130026 |       130896 |       130896 |       303181 |       303181 |       302589 |       302589 |       656052 |       656052 |       656315 |       656315 |      1478067 |      1478067 |      1471183 |      1471183 |      3344163 |      3344163 |      3325286 |      3325286 |      7032599 |      7032599 |      6978628 |      6978628 |     15531374 |     15531374 |     15402280 |     15402280 |
dl2.hits                                      2968 |         2968 |         2895 |         2895 |         7608 |         7608 |         7474 |         7474 |        20303 |        20303 |        20494 |        20494 |        48455 |        48455 |        49252 |        49252 |       120978 |       120978 |       121860 |       121860 |       285940 |       285940 |       285360 |       285360 |       622433 |       622433 |       622708 |       622708 |      1411673 |      1410972 |      1404801 |      1343863 |      3211524 |      2924996 |      3016972 |      2849975 |      6375707 |      5956419 |      6205613 |      5817268 |     13128396 |     12442705 |     12803703 |     12215306 |
dl2.misses                                    1378 |         1378 |         1363 |         1363 |         1889 |         1889 |         1876 |         1876 |         2912 |         2912 |         2895 |         2895 |         4953 |         4953 |         4941 |         4941 |         9048 |         9048 |         9036 |         9036 |        17241 |        17241 |        17229 |        17229 |        33619 |        33619 |        33607 |        33607 |        66394 |        67095 |        66382 |       127320 |       132639 |       419167 |       308314 |       475311 |       656892 |      1076180 |       773015 |      1161360 |      2402978 |      3088669 |      2598577 |      3186974 |
dl2.replacements                               147 |          147 |            0 |            0 |          146 |          146 |            0 |            0 |          150 |          150 |            0 |            0 |          145 |          145 |            0 |            0 |          145 |          145 |            0 |            0 |          145 |          145 |            0 |            0 |          145 |          145 |            0 |            0 |          145 |         1559 |            0 |        61784 |         1567 |       353631 |       177242 |       409775 |       525820 |      1010644 |       641943 |      1095824 |      2271906 |      3023133 |      2467505 |      3121438 |
dl2.writebacks                                  82 |           82 |            0 |            0 |           83 |           83 |            0 |            0 |           85 |           85 |            0 |            0 |           84 |           84 |            0 |            0 |           84 |           84 |            0 |            0 |           84 |           84 |            0 |            0 |           84 |           84 |            0 |            0 |           84 |         1304 |            0 |        60641 |         1312 |       331129 |       171674 |       376750 |       524984 |       950327 |       603670 |      1023746 |      1981669 |      2639621 |      2168429 |      2733281 |
dl2.invalidations                                0 |            0 |            0 |            0 |            0 |            0 |            0 |            0 |            0 |            0 |            0 |            0 |            0 |            0 |            0 |            0 |            0 |            0 |            0 |            0 |            0 |            0 |            0 |            0 |            0 |            0 |            0 |            0 |            0 |            0 |            0 |            0 |            0 |            0 |            0 |            0 |            0 |            0 |            0 |            0 |            0 |            0 |            0 |            0 |
dl2.miss_rate                               0.3171 |       0.3171 |       0.3201 |       0.3201 |       0.1989 |       0.1989 |       0.2006 |       0.2006 |       0.1254 |       0.1254 |       0.1238 |       0.1238 |       0.0927 |       0.0927 |       0.0912 |       0.0912 |       0.0696 |       0.0696 |       0.0690 |       0.0690 |       0.0569 |       0.0569 |       0.0569 |       0.0569 |       0.0512 |       0.0512 |       0.0512 |       0.0512 |       0.0449 |       0.0454 |       0.0451 |       0.0865 |       0.0397 |       0.1253 |       0.0927 |       0.1429 |       0.0934 |       0.1530 |       0.1108 |       0.1664 |       0.1547 |       0.1989 |       0.1687 |       0.2069 |
dl2.repl_rate                               0.0338 |       0.0338 |       0.0000 |       0.0000 |       0.0154 |       0.0154 |       0.0000 |       0.0000 |       0.0065 |       0.0065 |       0.0000 |       0.0000 |       0.0027 |       0.0027 |       0.0000 |       0.0000 |       0.0011 |       0.0011 |       0.0000 |       0.0000 |       0.0005 |       0.0005 |       0.0000 |       0.0000 |       0.0002 |       0.0002 |       0.0000 |       0.0000 |       0.0001 |       0.0011 |       0.0000 |       0.0420 |       0.0005 |       0.1057 |       0.0533 |       0.1232 |       0.0748 |       0.1437 |       0.0920 |       0.1570 |       0.1463 |       0.1946 |       0.1602 |       0.2027 |
dl2.wb_rate                                 0.0189 |       0.0189 |       0.0000 |       0.0000 |       0.0087 |       0.0087 |       0.0000 |       0.0000 |       0.0037 |       0.0037 |       0.0000 |       0.0000 |       0.0016 |       0.0016 |       0.0000 |       0.0000 |       0.0006 |       0.0006 |       0.0000 |       0.0000 |       0.0003 |       0.0003 |       0.0000 |       0.0000 |       0.0001 |       0.0001 |       0.0000 |       0.0000 |       0.0001 |       0.0009 |       0.0000 |       0.0412 |       0.0004 |       0.0990 |       0.0516 |       0.1133 |       0.0747 |       0.1351 |       0.0865 |       0.1467 |       0.1276 |       0.1700 |       0.1408 |       0.1775 |
dl2.inv_rate                                0.0000 |       0.0000 |       0.0000 |       0.0000 |       0.0000 |       0.0000 |       0.0000 |       0.0000 |       0.0000 |       0.0000 |       0.0000 |       0.0000 |       0.0000 |       0.0000 |       0.0000 |       0.0000 |       0.0000 |       0.0000 |       0.0000 |       0.0000 |       0.0000 |       0.0000 |       0.0000 |       0.0000 |       0.0000 |       0.0000 |       0.0000 |       0.0000 |       0.0000 |       0.0000 |       0.0000 |       0.0000 |       0.0000 |       0.0000 |       0.0000 |       0.0000 |       0.0000 |       0.0000 |       0.0000 |       0.0000 |       0.0000 |       0.0000 |       0.0000 |       0.0000 |
itlb.accesses                               466685 |       466685 |       466685 |       466685 |       988558 |       988558 |       988558 |       988558 |      2141462 |      2141462 |      2141462 |      2141462 |      4576135 |      4576135 |      4576135 |      4576135 |      9793781 |      9793781 |      9793781 |      9793781 |     21081013 |     21081013 |     21081013 |     21081013 |     43878702 |     43878702 |     43878702 |     43878702 |     92746861 |     92746861 |     92746861 |     92746861 |    198775046 |    198775046 |    198775046 |    198775046 |    408441238 |    408441238 |    408441238 |    408441238 |    865453282 |    865453282 |    865453282 |    865453282 |
itlb.hits                                   466674 |       466674 |       466674 |       466674 |       988547 |       988547 |       988547 |       988547 |      2141451 |      2141451 |      2141451 |      2141451 |      4576125 |      4576125 |      4576125 |      4576125 |      9793771 |      9793771 |      9793771 |      9793771 |     21081003 |     21081003 |     21081003 |     21081003 |     43878692 |     43878692 |     43878692 |     43878692 |     92746851 |     92746851 |     92746851 |     92746851 |    198775036 |    198775036 |    198775036 |    198775036 |    408441228 |    408441228 |    408441228 |    408441228 |    865453272 |    865453272 |    865453272 |    865453272 |
itlb.misses                                     11 |           11 |           11 |           11 |           11 |           11 |           11 |           11 |           11 |           11 |           11 |           11 |           10 |           10 |           10 |           10 |           10 |           10 |           10 |           10 |           10 |           10 |           10 |           10 |           10 |           10 |           10 |           10 |           10 |           10 |           10 |           10 |           10 |           10 |           10 |           10 |           10 |           10 |           10 |           10 |           10 |           10 |           10 |           10 |
itlb.replacements                                0 |            0 |            0 |            0 |            0 |            0 |            0 |            0 |            0 |            0 |            0 |            0 |            0 |            0 |            0 |            0 |            0 |            0 |            0 |            0 |            0 |            0 |            0 |            0 |            0 |            0 |            0 |            0 |            0 |            0 |            0 |            0 |            0 |            0 |            0 |            0 |            0 |            0 |            0 |            0 |            0 |            0 |            0 |            0 |
itlb.writebacks                                  0 |            0 |            0 |            0 |            0 |            0 |            0 |            0 |            0 |            0 |            0 |            0 |            0 |            0 |            0 |            0 |            0 |            0 |            0 |            0 |            0 |            0 |            0 |            0 |            0 |            0 |            0 |            0 |            0 |            0 |            0 |            0 |            0 |            0 |            0 |            0 |            0 |            0 |            0 |            0 |            0 |            0 |            0 |            0 |
itlb.invalidations                               0 |            0 |            0 |            0 |            0 |            0 |            0 |            0 |            0 |            0 |            0 |            0 |            0 |            0 |            0 |            0 |            0 |            0 |            0 |            0 |            0 |            0 |            0 |            0 |            0 |            0 |            0 |            0 |            0 |            0 |            0 |            0 |            0 |            0 |            0 |            0 |            0 |            0 |            0 |            0 |            0 |            0 |            0 |            0 |
itlb.miss_rate                              0.0000 |       0.0000 |       0.0000 |       0.0000 |       0.0000 |       0.0000 |       0.0000 |       0.0000 |       0.0000 |       0.0000 |       0.0000 |       0.0000 |       0.0000 |       0.0000 |       0.0000 |       0.0000 |       0.0000 |       0.0000 |       0.0000 |       0.0000 |       0.0000 |       0.0000 |       0.0000 |       0.0000 |       0.0000 |       0.0000 |       0.0000 |       0.0000 |       0.0000 |       0.0000 |       0.0000 |       0.0000 |       0.0000 |       0.0000 |       0.0000 |       0.0000 |       0.0000 |       0.0000 |       0.0000 |       0.0000 |       0.0000 |       0.0000 |       0.0000 |       0.0000 |
itlb.repl_rate                              0.0000 |       0.0000 |       0.0000 |       0.0000 |       0.0000 |       0.0000 |       0.0000 |       0.0000 |       0.0000 |       0.0000 |       0.0000 |       0.0000 |       0.0000 |       0.0000 |       0.0000 |       0.0000 |       0.0000 |       0.0000 |       0.0000 |       0.0000 |       0.0000 |       0.0000 |       0.0000 |       0.0000 |       0.0000 |       0.0000 |       0.0000 |       0.0000 |       0.0000 |       0.0000 |       0.0000 |       0.0000 |       0.0000 |       0.0000 |       0.0000 |       0.0000 |       0.0000 |       0.0000 |       0.0000 |       0.0000 |       0.0000 |       0.0000 |       0.0000 |       0.0000 |
itlb.wb_rate                                0.0000 |       0.0000 |       0.0000 |       0.0000 |       0.0000 |       0.0000 |       0.0000 |       0.0000 |       0.0000 |       0.0000 |       0.0000 |       0.0000 |       0.0000 |       0.0000 |       0.0000 |       0.0000 |       0.0000 |       0.0000 |       0.0000 |       0.0000 |       0.0000 |       0.0000 |       0.0000 |       0.0000 |       0.0000 |       0.0000 |       0.0000 |       0.0000 |       0.0000 |       0.0000 |       0.0000 |       0.0000 |       0.0000 |       0.0000 |       0.0000 |       0.0000 |       0.0000 |       0.0000 |       0.0000 |       0.0000 |       0.0000 |       0.0000 |       0.0000 |       0.0000 |
itlb.inv_rate                               0.0000 |       0.0000 |       0.0000 |       0.0000 |       0.0000 |       0.0000 |       0.0000 |       0.0000 |       0.0000 |       0.0000 |       0.0000 |       0.0000 |       0.0000 |       0.0000 |       0.0000 |       0.0000 |       0.0000 |       0.0000 |       0.0000 |       0.0000 |       0.0000 |       0.0000 |       0.0000 |       0.0000 |       0.0000 |       0.0000 |       0.0000 |       0.0000 |       0.0000 |       0.0000 |       0.0000 |       0.0000 |       0.0000 |       0.0000 |       0.0000 |       0.0000 |       0.0000 |       0.0000 |       0.0000 |       0.0000 |       0.0000 |       0.0000 |       0.0000 |       0.0000 |
dtlb.accesses                               139314 |       139314 |       139314 |       139314 |       290672 |       290672 |       290672 |       290672 |       614699 |       614699 |       614699 |       614699 |      1295067 |      1295067 |      1295067 |      1295067 |      2736087 |      2736087 |      2736087 |      2736087 |      5786433 |      5786433 |      5786433 |      5786433 |     12029600 |     12029600 |     12029600 |     12029600 |     25198619 |     25198619 |     25198619 |     25198619 |     53147770 |     53147770 |     53147770 |     53147770 |    109575972 |    109575972 |    109575972 |    109575972 |    229647836 |    229647836 |    229647836 |    229647836 |
dtlb.hits                                   139302 |       139302 |       139302 |       139302 |       290656 |       290656 |       290656 |       290656 |       614675 |       614675 |       614675 |       614675 |      1295027 |      1295027 |      1295027 |      1295027 |      2736015 |      2736015 |      2736015 |      2736015 |      5786266 |      5786266 |      5786266 |      5786266 |     12028818 |     12028818 |     12028818 |     12028818 |     25196446 |     25196446 |     25196446 |     25196446 |     53141418 |     53141418 |     53141418 |     53141418 |    109562372 |    109562372 |    109562372 |    109562372 |    229613918 |    229613918 |    229613918 |    229613918 |
dtlb.misses                                     12 |           12 |           12 |           12 |           16 |           16 |           16 |           16 |           24 |           24 |           24 |           24 |           40 |           40 |           40 |           40 |           72 |           72 |           72 |           72 |          167 |          167 |          167 |          167 |          782 |          782 |          782 |          782 |         2173 |         2173 |         2173 |         2173 |         6352 |         6352 |         6352 |         6352 |        13600 |        13600 |        13600 |        13600 |        33918 |        33918 |        33918 |        33918 |
dtlb.replacements                                0 |            0 |            0 |            0 |            0 |            0 |            0 |            0 |            0 |            0 |            0 |            0 |            0 |            0 |            0 |            0 |            0 |            0 |            0 |            0 |           39 |           39 |           39 |           39 |          654 |          654 |          654 |          654 |         2045 |         2045 |         2045 |         2045 |         6224 |         6224 |         6224 |         6224 |        13472 |        13472 |        13472 |        13472 |        33790 |        33790 |        33790 |        33790 |
dtlb.writebacks                                  0 |            0 |            0 |            0 |            0 |            0 |            0 |            0 |            0 |            0 |            0 |            0 |            0 |            0 |            0 |            0 |            0 |            0 |            0 |            0 |           37 |           37 |           37 |           37 |          652 |          652 |          652 |          652 |         2043 |         2043 |         2043 |         2043 |         6221 |         6221 |         6221 |         6221 |        13470 |        13470 |        13470 |        13470 |        33788 |        33788 |        33788 |        33788 |
dtlb.invalidations                               0 |            0 |            0 |            0 |            0 |            0 |            0 |            0 |            0 |            0 |            0 |            0 |            0 |            0 |            0 |            0 |            0 |            0 |            0 |            0 |            0 |            0 |            0 |            0 |            0 |            0 |            0 |            0 |            0 |            0 |            0 |            0 |            0 |            0 |            0 |            0 |            0 |            0 |            0 |            0 |            0 |            0 |            0 |            0 |
dtlb.miss_rate                              0.0001 |       0.0001 |       0.0001 |       0.0001 |       0.0001 |       0.0001 |       0.0001 |       0.0001 |       0.0000 |       0.0000 |       0.0000 |       0.0000 |       0.0000 |       0.0000 |       0.0000 |       0.0000 |       0.0000 |       0.0000 |       0.0000 |       0.0000 |       0.0000 |       0.0000 |       0.0000 |       0.0000 |       0.0001 |       0.0001 |       0.0001 |       0.0001 |       0.0001 |       0.0001 |       0.0001 |       0.0001 |       0.0001 |       0.0001 |       0.0001 |       0.0001 |       0.0001 |       0.0001 |       0.0001 |       0.0001 |       0.0001 |       0.0001 |       0.0001 |       0.0001 |
dtlb.repl_rate                              0.0000 |       0.0000 |       0.0000 |       0.0000 |       0.0000 |       0.0000 |       0.0000 |       0.0000 |       0.0000 |       0.0000 |       0.0000 |       0.0000 |       0.0000 |       0.0000 |       0.0000 |       0.0000 |       0.0000 |       0.0000 |       0.0000 |       0.0000 |       0.0000 |       0.0000 |       0.0000 |       0.0000 |       0.0001 |       0.0001 |       0.0001 |       0.0001 |       0.0001 |       0.0001 |       0.0001 |       0.0001 |       0.0001 |       0.0001 |       0.0001 |       0.0001 |       0.0001 |       0.0001 |       0.0001 |       0.0001 |       0.0001 |       0.0001 |       0.0001 |       0.0001 |
dtlb.wb_rate                                0.0000 |       0.0000 |       0.0000 |       0.0000 |       0.0000 |       0.0000 |       0.0000 |       0.0000 |       0.0000 |       0.0000 |       0.0000 |       0.0000 |       0.0000 |       0.0000 |       0.0000 |       0.0000 |       0.0000 |       0.0000 |       0.0000 |       0.0000 |       0.0000 |       0.0000 |       0.0000 |       0.0000 |       0.0001 |       0.0001 |       0.0001 |       0.0001 |       0.0001 |       0.0001 |       0.0001 |       0.0001 |       0.0001 |       0.0001 |       0.0001 |       0.0001 |       0.0001 |       0.0001 |       0.0001 |       0.0001 |       0.0001 |       0.0001 |       0.0001 |       0.0001 |
dtlb.inv_rate                               0.0000 |       0.0000 |       0.0000 |       0.0000 |       0.0000 |       0.0000 |       0.0000 |       0.0000 |       0.0000 |       0.0000 |       0.0000 |       0.0000 |       0.0000 |       0.0000 |       0.0000 |       0.0000 |       0.0000 |       0.0000 |       0.0000 |       0.0000 |       0.0000 |       0.0000 |       0.0000 |       0.0000 |       0.0000 |       0.0000 |       0.0000 |       0.0000 |       0.0000 |       0.0000 |       0.0000 |       0.0000 |       0.0000 |       0.0000 |       0.0000 |       0.0000 |       0.0000 |       0.0000 |       0.0000 |       0.0000 |       0.0000 |       0.0000 |       0.0000 |       0.0000 |
ld_text_base                            0x00400000 |   0x00400000 |   0x00400000 |   0x00400000 |   0x00400000 |   0x00400000 |   0x00400000 |   0x00400000 |   0x00400000 |   0x00400000 |   0x00400000 |   0x00400000 |   0x00400000 |   0x00400000 |   0x00400000 |   0x00400000 |   0x00400000 |   0x00400000 |   0x00400000 |   0x00400000 |   0x00400000 |   0x00400000 |   0x00400000 |   0x00400000 |   0x00400000 |   0x00400000 |   0x00400000 |   0x00400000 |   0x00400000 |   0x00400000 |   0x00400000 |   0x00400000 |   0x00400000 |   0x00400000 |   0x00400000 |   0x00400000 |   0x00400000 |   0x00400000 |   0x00400000 |   0x00400000 |   0x00400000 |   0x00400000 |   0x00400000 |   0x00400000 |
ld_text_size                                 73104 |        73104 |        73104 |        73104 |        73136 |        73136 |        73136 |        73136 |        73152 |        73152 |        73152 |        73152 |        73168 |        73168 |        73168 |        73168 |        73168 |        73168 |        73168 |        73168 |        73168 |        73168 |        73168 |        73168 |        73168 |        73168 |        73168 |        73168 |        73168 |        73168 |        73168 |        73168 |        73168 |        73168 |        73168 |        73168 |        73168 |        73168 |        73168 |        73168 |        73168 |        73168 |        73168 |        73168 |
ld_data_base                            0x10000000 |   0x10000000 |   0x10000000 |   0x10000000 |   0x10000000 |   0x10000000 |   0x10000000 |   0x10000000 |   0x10000000 |   0x10000000 |   0x10000000 |   0x10000000 |   0x10000000 |   0x10000000 |   0x10000000 |   0x10000000 |   0x10000000 |   0x10000000 |   0x10000000 |   0x10000000 |   0x10000000 |   0x10000000 |   0x10000000 |   0x10000000 |   0x10000000 |   0x10000000 |   0x10000000 |   0x10000000 |   0x10000000 |   0x10000000 |   0x10000000 |   0x10000000 |   0x10000000 |   0x10000000 |   0x10000000 |   0x10000000 |   0x10000000 |   0x10000000 |   0x10000000 |   0x10000000 |   0x10000000 |   0x10000000 |   0x10000000 |   0x10000000 |
ld_data_size                                  8192 |         8192 |         8192 |         8192 |         8192 |         8192 |         8192 |         8192 |         8192 |         8192 |         8192 |         8192 |         8192 |         8192 |         8192 |         8192 |         8192 |         8192 |         8192 |         8192 |         8192 |         8192 |         8192 |         8192 |         8192 |         8192 |         8192 |         8192 |         8192 |         8192 |         8192 |         8192 |         8192 |         8192 |         8192 |         8192 |         8192 |         8192 |         8192 |         8192 |         8192 |         8192 |         8192 |         8192 |
ld_stack_base                           0x7fffc000 |   0x7fffc000 |   0x7fffc000 |   0x7fffc000 |   0x7fffc000 |   0x7fffc000 |   0x7fffc000 |   0x7fffc000 |   0x7fffc000 |   0x7fffc000 |   0x7fffc000 |   0x7fffc000 |   0x7fffc000 |   0x7fffc000 |   0x7fffc000 |   0x7fffc000 |   0x7fffc000 |   0x7fffc000 |   0x7fffc000 |   0x7fffc000 |   0x7fffc000 |   0x7fffc000 |   0x7fffc000 |   0x7fffc000 |   0x7fffc000 |   0x7fffc000 |   0x7fffc000 |   0x7fffc000 |   0x7fffc000 |   0x7fffc000 |   0x7fffc000 |   0x7fffc000 |   0x7fffc000 |   0x7fffc000 |   0x7fffc000 |   0x7fffc000 |   0x7fffc000 |   0x7fffc000 |   0x7fffc000 |   0x7fffc000 |   0x7fffc000 |   0x7fffc000 |   0x7fffc000 |   0x7fffc000 |
ld_stack_size                                16384 |        16384 |        16384 |        16384 |        16384 |        16384 |        16384 |        16384 |        16384 |        16384 |        16384 |        16384 |        16384 |        16384 |        16384 |        16384 |        16384 |        16384 |        16384 |        16384 |        16384 |        16384 |        16384 |        16384 |        16384 |        16384 |        16384 |        16384 |        16384 |        16384 |        16384 |        16384 |        16384 |        16384 |        16384 |        16384 |        16384 |        16384 |        16384 |        16384 |        16384 |        16384 |        16384 |        16384 |
ld_prog_entry                           0x00400140 |   0x00400140 |   0x00400140 |   0x00400140 |   0x00400140 |   0x00400140 |   0x00400140 |   0x00400140 |   0x00400140 |   0x00400140 |   0x00400140 |   0x00400140 |   0x00400140 |   0x00400140 |   0x00400140 |   0x00400140 |   0x00400140 |   0x00400140 |   0x00400140 |   0x00400140 |   0x00400140 |   0x00400140 |   0x00400140 |   0x00400140 |   0x00400140 |   0x00400140 |   0x00400140 |   0x00400140 |   0x00400140 |   0x00400140 |   0x00400140 |   0x00400140 |   0x00400140 |   0x00400140 |   0x00400140 |   0x00400140 |   0x00400140 |   0x00400140 |   0x00400140 |   0x00400140 |   0x00400140 |   0x00400140 |   0x00400140 |   0x00400140 |
ld_environ_base                         0x7fff8000 |   0x7fff8000 |   0x7fff8000 |   0x7fff8000 |   0x7fff8000 |   0x7fff8000 |   0x7fff8000 |   0x7fff8000 |   0x7fff8000 |   0x7fff8000 |   0x7fff8000 |   0x7fff8000 |   0x7fff8000 |   0x7fff8000 |   0x7fff8000 |   0x7fff8000 |   0x7fff8000 |   0x7fff8000 |   0x7fff8000 |   0x7fff8000 |   0x7fff8000 |   0x7fff8000 |   0x7fff8000 |   0x7fff8000 |   0x7fff8000 |   0x7fff8000 |   0x7fff8000 |   0x7fff8000 |   0x7fff8000 |   0x7fff8000 |   0x7fff8000 |   0x7fff8000 |   0x7fff8000 |   0x7fff8000 |   0x7fff8000 |   0x7fff8000 |   0x7fff8000 |   0x7fff8000 |   0x7fff8000 |   0x7fff8000 |   0x7fff8000 |   0x7fff8000 |   0x7fff8000 |   0x7fff8000 |
ld_target_big_endian                             0 |            0 |            0 |            0 |            0 |            0 |            0 |            0 |            0 |            0 |            0 |            0 |            0 |            0 |            0 |            0 |            0 |            0 |            0 |            0 |            0 |            0 |            0 |            0 |            0 |            0 |            0 |            0 |            0 |            0 |            0 |            0 |            0 |            0 |            0 |            0 |            0 |            0 |            0 |            0 |            0 |            0 |            0 |            0 |
mem.page_count                                  30 |           30 |           30 |           30 |           34 |           34 |           34 |           34 |           42 |           42 |           42 |           42 |           58 |           58 |           58 |           58 |           90 |           90 |           90 |           90 |          154 |          154 |          154 |          154 |          282 |          282 |          282 |          282 |          538 |          538 |          538 |          538 |         1050 |         1050 |         1050 |         1050 |         2074 |         2074 |         2074 |         2074 |         4122 |         4122 |         4122 |         4122 |
mem.page_mem                                  120k |         120k |         120k |         120k |         136k |         136k |         136k |         136k |         168k |         168k |         168k |         168k |         232k |         232k |         232k |         232k |         360k |         360k |         360k |         360k |         616k |         616k |         616k |         616k |        1128k |        1128k |        1128k |        1128k |        2152k |        2152k |        2152k |        2152k |        4200k |        4200k |        4200k |        4200k |        8296k |        8296k |        8296k |        8296k |       16488k |       16488k |       16488k |       16488k |
mem.ptab_misses                                 30 |           30 |           30 |           30 |           34 |           34 |           34 |           34 |           42 |           42 |           42 |           42 |           58 |           58 |           58 |           58 |           90 |           90 |           90 |           90 |          154 |          154 |          154 |          154 |          282 |          282 |          282 |          282 |          538 |          538 |          538 |          538 |         1050 |         1050 |         1050 |         1050 |         2074 |         2074 |         2074 |         2074 |         4122 |         4122 |         4122 |         4122 |
mem.ptab_accesses                          2598614 |      2598614 |      2598614 |      2598614 |      4989014 |      4989014 |      4989014 |      4989014 |     10248780 |     10248780 |     10248780 |     10248780 |     21348304 |     21348304 |     21348304 |     21348304 |     45100928 |     45100928 |     45100928 |     45100928 |     96350548 |     96350548 |     96350548 |     96350548 |    200027638 |    200027638 |    200027638 |    200027638 |    421838312 |    421838312 |    421838312 |    421838312 |    901849354 |    901849354 |    901849354 |    901849354 |   1853370526 |   1853370526 |   1853370526 |   1853370526 |   3921562430 |   3921562430 |   3921562430 |   3921562430 |
mem.ptab_miss_rate                          0.0000 |       0.0000 |       0.0000 |       0.0000 |       0.0000 |       0.0000 |       0.0000 |       0.0000 |       0.0000 |       0.0000 |       0.0000 |       0.0000 |       0.0000 |       0.0000 |       0.0000 |       0.0000 |       0.0000 |       0.0000 |       0.0000 |       0.0000 |       0.0000 |       0.0000 |       0.0000 |       0.0000 |       0.0000 |       0.0000 |       0.0000 |       0.0000 |       0.0000 |       0.0000 |       0.0000 |       0.0000 |       0.0000 |       0.0000 |       0.0000 |       0.0000 |       0.0000 |       0.0000 |       0.0000 |       0.0000 |       0.0000 |       0.0000 |       0.0000 |       0.0000 |
-------------------------------------------------------------------------------------------------
sim-bpred                                     4096 |         4096 |         4096 |         4096 |         4096 |         4096 |         4096 |         8192 |         8192 |         8192 |         8192 |         8192 |         8192 |         8192 |        16384 |        16384 |        16384 |        16384 |        16384 |        16384 |        16384 |        32768 |        32768 |        32768 |        32768 |        32768 |        32768 |        32768 |        65536 |        65536 |        65536 |        65536 |        65536 |        65536 |        65536 |       131072 |       131072 |       131072 |       131072 |       131072 |       131072 |       131072 |       262144 |       262144 |       262144 |       262144 |       262144 |       262144 |       262144 |       524288 |       524288 |       524288 |       524288 |       524288 |       524288 |       524288 |      1048576 |      1048576 |      1048576 |      1048576 |      1048576 |      1048576 |      1048576 |      2097152 |      2097152 |      2097152 |      2097152 |      2097152 |      2097152 |      2097152 |      4194304 |      4194304 |      4194304 |      4194304 |      4194304 |      4194304 |      4194304 |
-bpred bimod -bpred:bimod 512
-bpred bimod -bpred:bimod 1024
-bpred bimod -bpred:bimod 2048
-bpred 2lev -bpred:2lev 1 512 10 1
-bpred 2lev -bpred:2lev 1 1024 10 1
-bpred 2lev -bpred:2lev 1 2048 10 1
-bpred 2lev -bpred:2lev 1 4096 10 1
-------------------------------------------------------------------------------------------------
sim_num_insn                                466685 |       466685 |       466685 |       466685 |       466685 |       466685 |       466685 |       988558 |       988558 |       988558 |       988558 |       988558 |       988558 |       988558 |      2141462 |      2141462 |      2141462 |      2141462 |      2141462 |      2141462 |      2141462 |      4576135 |      4576135 |      4576135 |      4576135 |      4576135 |      4576135 |      4576135 |      9793781 |      9793781 |      9793781 |      9793781 |      9793781 |      9793781 |      9793781 |     21081013 |     21081013 |     21081013 |     21081013 |     21081013 |     21081013 |     21081013 |     43878702 |     43878702 |     43878702 |     43878702 |     43878702 |     43878702 |     43878702 |     92746861 |     92746861 |     92746861 |     92746861 |     92746861 |     92746861 |     92746861 |    198775046 |    198775046 |    198775046 |    198775046 |    198775046 |    198775046 |    198775046 |    408441238 |    408441238 |    408441238 |    408441238 |    408441238 |    408441238 |    408441238 |    865453282 |    865453282 |    865453282 |    865453282 |    865453282 |    865453282 |    865453282 |
sim_num_refs                                122848 |       122848 |       122848 |       122848 |       122848 |       122848 |       122848 |       257822 |       257822 |       257822 |       257822 |       257822 |       257822 |       257822 |       549081 |       549081 |       549081 |       549081 |       549081 |       549081 |       549081 |      1163913 |      1163913 |      1163913 |      1163913 |      1163913 |      1163913 |      1163913 |      2473861 |      2473861 |      2473861 |      2473861 |      2473861 |      2473861 |      2473861 |      5262063 |      5262063 |      5262063 |      5262063 |      5262063 |      5262063 |      5262063 |     10980942 |     10980942 |     10980942 |     10980942 |     10980942 |     10980942 |     10980942 |     23101385 |     23101385 |     23101385 |     23101385 |     23101385 |     23101385 |     23101385 |     48953384 |     48953384 |     48953384 |     48953384 |     48953384 |     48953384 |     48953384 |    101187282 |    101187282 |    101187282 |    101187282 |    101187282 |    101187282 |    101187282 |    212870538 |    212870538 |    212870538 |    212870538 |    212870538 |    212870538 |    212870538 |
sim_elapsed_time                                 1 |            1 |            1 |            1 |            1 |            1 |            1 |            1 |            1 |            1 |            1 |            1 |            1 |            1 |            1 |            1 |            1 |            1 |            1 |            1 |            1 |            1 |            1 |            1 |            1 |            1 |            1 |            1 |            2 |            1 |            1 |            1 |            1 |            2 |            1 |            2 |            3 |            2 |            3 |            2 |            3 |            3 |            5 |            5 |            5 |            7 |            5 |            6 |            5 |           11 |           11 |           11 |           11 |           12 |           11 |           11 |           24 |           24 |           23 |           24 |           24 |           25 |           24 |           49 |           48 |           49 |           50 |           49 |           49 |           50 |          103 |          103 |          103 |          105 |          105 |          104 |          105 |
sim_inst_rate                          466685.0000 |  466685.0000 |  466685.0000 |  466685.0000 |  466685.0000 |  466685.0000 |  466685.0000 |  988558.0000 |  988558.0000 |  988558.0000 |  988558.0000 |  988558.0000 |  988558.0000 |  988558.0000 | 2141462.0000 | 2141462.0000 | 2141462.0000 | 2141462.0000 | 2141462.0000 | 2141462.0000 | 2141462.0000 | 4576135.0000 | 4576135.0000 | 4576135.0000 | 4576135.0000 | 4576135.0000 | 4576135.0000 | 4576135.0000 | 4896890.5000 | 9793781.0000 | 9793781.0000 | 9793781.0000 | 9793781.0000 | 4896890.5000 | 9793781.0000 |10540506.5000 | 7027004.3333 |10540506.5000 | 7027004.3333 |10540506.5000 | 7027004.3333 | 7027004.3333 | 8775740.4000 | 8775740.4000 | 8775740.4000 | 6268386.0000 | 8775740.4000 | 7313117.0000 | 8775740.4000 | 8431532.8182 | 8431532.8182 | 8431532.8182 | 8431532.8182 | 7728905.0833 | 8431532.8182 | 8431532.8182 | 8282293.5833 | 8282293.5833 | 8642393.3043 | 8282293.5833 | 8282293.5833 | 7951001.8400 | 8282293.5833 | 8335535.4694 | 8509192.4583 | 8335535.4694 | 8168824.7600 | 8335535.4694 | 8335535.4694 | 8168824.7600 | 8402459.0485 | 8402459.0485 | 8402459.0485 | 8242412.2095 | 8242412.2095 | 8321666.1731 | 8242412.2095 |
sim_num_branches                             76487 |        76487 |        76487 |        76487 |        76487 |        76487 |        76487 |       163594 |       163594 |       163594 |       163594 |       163594 |       163594 |       163594 |       356576 |       356576 |       356576 |       356576 |       356576 |       356576 |       356576 |       765574 |       765574 |       765574 |       765574 |       765574 |       765574 |       765574 |      1647036 |      1647036 |      1647036 |      1647036 |      1647036 |      1647036 |      1647036 |      3555183 |      3555183 |      3555183 |      3555183 |      3555183 |      3555183 |      3555183 |      7433609 |      7433609 |      7433609 |      7433609 |      7433609 |      7433609 |      7433609 |     15763155 |     15763155 |     15763155 |     15763155 |     15763155 |     15763155 |     15763155 |     33829619 |     33829619 |     33829619 |     33829619 |     33829619 |     33829619 |     33829619 |     69773915 |     69773915 |     69773915 |     69773915 |     69773915 |     69773915 |     69773915 |    148192975 |    148192975 |    148192975 |    148192975 |    148192975 |    148192975 |    148192975 |
sim_IPB                                     6.1015 |       6.1015 |       6.1015 |       6.1015 |       6.1015 |       6.1015 |       6.1015 |       6.0428 |       6.0428 |       6.0428 |       6.0428 |       6.0428 |       6.0428 |       6.0428 |       6.0056 |       6.0056 |       6.0056 |       6.0056 |       6.0056 |       6.0056 |       6.0056 |       5.9774 |       5.9774 |       5.9774 |       5.9774 |       5.9774 |       5.9774 |       5.9774 |       5.9463 |       5.9463 |       5.9463 |       5.9463 |       5.9463 |       5.9463 |       5.9463 |       5.9297 |       5.9297 |       5.9297 |       5.9297 |       5.9297 |       5.9297 |       5.9297 |       5.9027 |       5.9027 |       5.9027 |       5.9027 |       5.9027 |       5.9027 |       5.9027 |       5.8838 |       5.8838 |       5.8838 |       5.8838 |       5.8838 |       5.8838 |       5.8838 |       5.8758 |       5.8758 |       5.8758 |       5.8758 |       5.8758 |       5.8758 |       5.8758 |       5.8538 |       5.8538 |       5.8538 |       5.8538 |       5.8538 |       5.8538 |       5.8538 |       5.8400 |       5.8400 |       5.8400 |       5.8400 |       5.8400 |       5.8400 |       5.8400 |
bpred_bimod.lookups                          76487 |        76487 |        76487 |xxxxxxxxxxxxx |xxxxxxxxxxxxx |xxxxxxxxxxxxx |xxxxxxxxxxxxx |       163594 |       163594 |       163594 |xxxxxxxxxxxxx |xxxxxxxxxxxxx |xxxxxxxxxxxxx |xxxxxxxxxxxxx |       356576 |       356576 |       356576 |xxxxxxxxxxxxx |xxxxxxxxxxxxx |xxxxxxxxxxxxx |xxxxxxxxxxxxx |       765574 |       765574 |       765574 |xxxxxxxxxxxxx |xxxxxxxxxxxxx |xxxxxxxxxxxxx |xxxxxxxxxxxxx |      1647036 |      1647036 |      1647036 |xxxxxxxxxxxxx |xxxxxxxxxxxxx |xxxxxxxxxxxxx |xxxxxxxxxxxxx |      3555183 |      3555183 |      3555183 |xxxxxxxxxxxxx |xxxxxxxxxxxxx |xxxxxxxxxxxxx |xxxxxxxxxxxxx |      7433609 |      7433609 |      7433609 |xxxxxxxxxxxxx |xxxxxxxxxxxxx |xxxxxxxxxxxxx |xxxxxxxxxxxxx |     15763155 |     15763155 |     15763155 |xxxxxxxxxxxxx |xxxxxxxxxxxxx |xxxxxxxxxxxxx |xxxxxxxxxxxxx |     33829619 |     33829619 |     33829619 |xxxxxxxxxxxxx |xxxxxxxxxxxxx |xxxxxxxxxxxxx |xxxxxxxxxxxxx |     69773915 |     69773915 |     69773915 |xxxxxxxxxxxxx |xxxxxxxxxxxxx |xxxxxxxxxxxxx |xxxxxxxxxxxxx |    148192975 |    148192975 |    148192975 |
bpred_bimod.updates                          76487 |        76487 |        76487 |xxxxxxxxxxxxx |xxxxxxxxxxxxx |xxxxxxxxxxxxx |xxxxxxxxxxxxx |       163594 |       163594 |       163594 |xxxxxxxxxxxxx |xxxxxxxxxxxxx |xxxxxxxxxxxxx |xxxxxxxxxxxxx |       356576 |       356576 |       356576 |xxxxxxxxxxxxx |xxxxxxxxxxxxx |xxxxxxxxxxxxx |xxxxxxxxxxxxx |       765574 |       765574 |       765574 |xxxxxxxxxxxxx |xxxxxxxxxxxxx |xxxxxxxxxxxxx |xxxxxxxxxxxxx |      1647036 |      1647036 |      1647036 |xxxxxxxxxxxxx |xxxxxxxxxxxxx |xxxxxxxxxxxxx |xxxxxxxxxxxxx |      3555183 |      3555183 |      3555183 |xxxxxxxxxxxxx |xxxxxxxxxxxxx |xxxxxxxxxxxxx |xxxxxxxxxxxxx |      7433609 |      7433609 |      7433609 |xxxxxxxxxxxxx |xxxxxxxxxxxxx |xxxxxxxxxxxxx |xxxxxxxxxxxxx |     15763155 |     15763155 |     15763155 |xxxxxxxxxxxxx |xxxxxxxxxxxxx |xxxxxxxxxxxxx |xxxxxxxxxxxxx |     33829619 |     33829619 |     33829619 |xxxxxxxxxxxxx |xxxxxxxxxxxxx |xxxxxxxxxxxxx |xxxxxxxxxxxxx |     69773915 |     69773915 |     69773915 |xxxxxxxxxxxxx |xxxxxxxxxxxxx |xxxxxxxxxxxxx |xxxxxxxxxxxxx |    148192975 |    148192975 |    148192975 |
bpred_bimod.addr_hits                        54860 |        54859 |        54859 |xxxxxxxxxxxxx |xxxxxxxxxxxxx |xxxxxxxxxxxxx |xxxxxxxxxxxxx |       116508 |       116508 |       116510 |xxxxxxxxxxxxx |xxxxxxxxxxxxx |xxxxxxxxxxxxx |xxxxxxxxxxxxx |       256974 |       256976 |       256977 |xxxxxxxxxxxxx |xxxxxxxxxxxxx |xxxxxxxxxxxxx |xxxxxxxxxxxxx |       550686 |       550685 |       550686 |xxxxxxxxxxxxx |xxxxxxxxxxxxx |xxxxxxxxxxxxx |xxxxxxxxxxxxx |      1198706 |      1198705 |      1198705 |xxxxxxxxxxxxx |xxxxxxxxxxxxx |xxxxxxxxxxxxx |xxxxxxxxxxxxx |      2605739 |      2605738 |      2605740 |xxxxxxxxxxxxx |xxxxxxxxxxxxx |xxxxxxxxxxxxx |xxxxxxxxxxxxx |      5407760 |      5407759 |      5407759 |xxxxxxxxxxxxx |xxxxxxxxxxxxx |xxxxxxxxxxxxx |xxxxxxxxxxxxx |     11509149 |     11509148 |     11509149 |xxxxxxxxxxxxx |xxxxxxxxxxxxx |xxxxxxxxxxxxx |xxxxxxxxxxxxx |     24950703 |     24950702 |     24950702 |xxxxxxxxxxxxx |xxxxxxxxxxxxx |xxxxxxxxxxxxx |xxxxxxxxxxxxx |     50627132 |     50627131 |     50627131 |xxxxxxxxxxxxx |xxxxxxxxxxxxx |xxxxxxxxxxxxx |xxxxxxxxxxxxx |    108369051 |    108369050 |    108369050 |
bpred_bimod.dir_hits                         54970 |        54967 |        54968 |xxxxxxxxxxxxx |xxxxxxxxxxxxx |xxxxxxxxxxxxx |xxxxxxxxxxxxx |       116623 |       116619 |       116620 |xxxxxxxxxxxxx |xxxxxxxxxxxxx |xxxxxxxxxxxxx |xxxxxxxxxxxxx |       257086 |       257085 |       257087 |xxxxxxxxxxxxx |xxxxxxxxxxxxx |xxxxxxxxxxxxx |xxxxxxxxxxxxx |       550800 |       550796 |       550795 |xxxxxxxxxxxxx |xxxxxxxxxxxxx |xxxxxxxxxxxxx |xxxxxxxxxxxxx |      1198819 |      1198815 |      1198813 |xxxxxxxxxxxxx |xxxxxxxxxxxxx |xxxxxxxxxxxxx |xxxxxxxxxxxxx |      2605853 |      2605849 |      2605849 |xxxxxxxxxxxxx |xxxxxxxxxxxxx |xxxxxxxxxxxxx |xxxxxxxxxxxxx |      5407870 |      5407867 |      5407866 |xxxxxxxxxxxxx |xxxxxxxxxxxxx |xxxxxxxxxxxxx |xxxxxxxxxxxxx |     11509266 |     11509262 |     11509261 |xxxxxxxxxxxxx |xxxxxxxxxxxxx |xxxxxxxxxxxxx |xxxxxxxxxxxxx |     24950818 |     24950814 |     24950812 |xxxxxxxxxxxxx |xxxxxxxxxxxxx |xxxxxxxxxxxxx |xxxxxxxxxxxxx |     50627247 |     50627243 |     50627241 |xxxxxxxxxxxxx |xxxxxxxxxxxxx |xxxxxxxxxxxxx |xxxxxxxxxxxxx |    108369167 |    108369163 |    108369161 |
bpred_bimod.misses                           21517 |        21520 |        21519 |xxxxxxxxxxxxx |xxxxxxxxxxxxx |xxxxxxxxxxxxx |xxxxxxxxxxxxx |        46971 |        46975 |        46974 |xxxxxxxxxxxxx |xxxxxxxxxxxxx |xxxxxxxxxxxxx |xxxxxxxxxxxxx |        99490 |        99491 |        99489 |xxxxxxxxxxxxx |xxxxxxxxxxxxx |xxxxxxxxxxxxx |xxxxxxxxxxxxx |       214774 |       214778 |       214779 |xxxxxxxxxxxxx |xxxxxxxxxxxxx |xxxxxxxxxxxxx |xxxxxxxxxxxxx |       448217 |       448221 |       448223 |xxxxxxxxxxxxx |xxxxxxxxxxxxx |xxxxxxxxxxxxx |xxxxxxxxxxxxx |       949330 |       949334 |       949334 |xxxxxxxxxxxxx |xxxxxxxxxxxxx |xxxxxxxxxxxxx |xxxxxxxxxxxxx |      2025739 |      2025742 |      2025743 |xxxxxxxxxxxxx |xxxxxxxxxxxxx |xxxxxxxxxxxxx |xxxxxxxxxxxxx |      4253889 |      4253893 |      4253894 |xxxxxxxxxxxxx |xxxxxxxxxxxxx |xxxxxxxxxxxxx |xxxxxxxxxxxxx |      8878801 |      8878805 |      8878807 |xxxxxxxxxxxxx |xxxxxxxxxxxxx |xxxxxxxxxxxxx |xxxxxxxxxxxxx |     19146668 |     19146672 |     19146674 |xxxxxxxxxxxxx |xxxxxxxxxxxxx |xxxxxxxxxxxxx |xxxxxxxxxxxxx |     39823808 |     39823812 |     39823814 |
bpred_bimod.jr_hits                             64 |           64 |           64 |xxxxxxxxxxxxx |xxxxxxxxxxxxx |xxxxxxxxxxxxx |xxxxxxxxxxxxx |           64 |           64 |           64 |xxxxxxxxxxxxx |xxxxxxxxxxxxx |xxxxxxxxxxxxx |xxxxxxxxxxxxx |           64 |           64 |           64 |xxxxxxxxxxxxx |xxxxxxxxxxxxx |xxxxxxxxxxxxx |xxxxxxxxxxxxx |           64 |           64 |           64 |xxxxxxxxxxxxx |xxxxxxxxxxxxx |xxxxxxxxxxxxx |xxxxxxxxxxxxx |           64 |           64 |           64 |xxxxxxxxxxxxx |xxxxxxxxxxxxx |xxxxxxxxxxxxx |xxxxxxxxxxxxx |           64 |           64 |           64 |xxxxxxxxxxxxx |xxxxxxxxxxxxx |xxxxxxxxxxxxx |xxxxxxxxxxxxx |           64 |           64 |           64 |xxxxxxxxxxxxx |xxxxxxxxxxxxx |xxxxxxxxxxxxx |xxxxxxxxxxxxx |           64 |           64 |           64 |xxxxxxxxxxxxx |xxxxxxxxxxxxx |xxxxxxxxxxxxx |xxxxxxxxxxxxx |           64 |           64 |           64 |xxxxxxxxxxxxx |xxxxxxxxxxxxx |xxxxxxxxxxxxx |xxxxxxxxxxxxx |           64 |           64 |           64 |xxxxxxxxxxxxx |xxxxxxxxxxxxx |xxxxxxxxxxxxx |xxxxxxxxxxxxx |           64 |           64 |           64 |
bpred_bimod.jr_seen                             64 |           64 |           64 |xxxxxxxxxxxxx |xxxxxxxxxxxxx |xxxxxxxxxxxxx |xxxxxxxxxxxxx |           64 |           64 |           64 |xxxxxxxxxxxxx |xxxxxxxxxxxxx |xxxxxxxxxxxxx |xxxxxxxxxxxxx |           64 |           64 |           64 |xxxxxxxxxxxxx |xxxxxxxxxxxxx |xxxxxxxxxxxxx |xxxxxxxxxxxxx |           64 |           64 |           64 |xxxxxxxxxxxxx |xxxxxxxxxxxxx |xxxxxxxxxxxxx |xxxxxxxxxxxxx |           64 |           64 |           64 |xxxxxxxxxxxxx |xxxxxxxxxxxxx |xxxxxxxxxxxxx |xxxxxxxxxxxxx |           64 |           64 |           64 |xxxxxxxxxxxxx |xxxxxxxxxxxxx |xxxxxxxxxxxxx |xxxxxxxxxxxxx |           64 |           64 |           64 |xxxxxxxxxxxxx |xxxxxxxxxxxxx |xxxxxxxxxxxxx |xxxxxxxxxxxxx |           64 |           64 |           64 |xxxxxxxxxxxxx |xxxxxxxxxxxxx |xxxxxxxxxxxxx |xxxxxxxxxxxxx |           64 |           64 |           64 |xxxxxxxxxxxxx |xxxxxxxxxxxxx |xxxxxxxxxxxxx |xxxxxxxxxxxxx |           64 |           64 |           64 |xxxxxxxxxxxxx |xxxxxxxxxxxxx |xxxxxxxxxxxxx |xxxxxxxxxxxxx |           64 |           64 |           64 |
bpred_bimod.jr_non_ras_hits.PP                   0 |            0 |            0 |xxxxxxxxxxxxx |xxxxxxxxxxxxx |xxxxxxxxxxxxx |xxxxxxxxxxxxx |            0 |            0 |            0 |xxxxxxxxxxxxx |xxxxxxxxxxxxx |xxxxxxxxxxxxx |xxxxxxxxxxxxx |            0 |            0 |            0 |xxxxxxxxxxxxx |xxxxxxxxxxxxx |xxxxxxxxxxxxx |xxxxxxxxxxxxx |            0 |            0 |            0 |xxxxxxxxxxxxx |xxxxxxxxxxxxx |xxxxxxxxxxxxx |xxxxxxxxxxxxx |            0 |            0 |            0 |xxxxxxxxxxxxx |xxxxxxxxxxxxx |xxxxxxxxxxxxx |xxxxxxxxxxxxx |            0 |            0 |            0 |xxxxxxxxxxxxx |xxxxxxxxxxxxx |xxxxxxxxxxxxx |xxxxxxxxxxxxx |            0 |            0 |            0 |xxxxxxxxxxxxx |xxxxxxxxxxxxx |xxxxxxxxxxxxx |xxxxxxxxxxxxx |            0 |            0 |            0 |xxxxxxxxxxxxx |xxxxxxxxxxxxx |xxxxxxxxxxxxx |xxxxxxxxxxxxx |            0 |            0 |            0 |xxxxxxxxxxxxx |xxxxxxxxxxxxx |xxxxxxxxxxxxx |xxxxxxxxxxxxx |            0 |            0 |            0 |xxxxxxxxxxxxx |xxxxxxxxxxxxx |xxxxxxxxxxxxx |xxxxxxxxxxxxx |            0 |            0 |            0 |
bpred_bimod.jr_non_ras_seen.PP                   0 |            0 |            0 |xxxxxxxxxxxxx |xxxxxxxxxxxxx |xxxxxxxxxxxxx |xxxxxxxxxxxxx |            0 |            0 |            0 |xxxxxxxxxxxxx |xxxxxxxxxxxxx |xxxxxxxxxxxxx |xxxxxxxxxxxxx |            0 |            0 |            0 |xxxxxxxxxxxxx |xxxxxxxxxxxxx |xxxxxxxxxxxxx |xxxxxxxxxxxxx |            0 |            0 |            0 |xxxxxxxxxxxxx |xxxxxxxxxxxxx |xxxxxxxxxxxxx |xxxxxxxxxxxxx |            0 |            0 |            0 |xxxxxxxxxxxxx |xxxxxxxxxxxxx |xxxxxxxxxxxxx |xxxxxxxxxxxxx |            0 |            0 |            0 |xxxxxxxxxxxxx |xxxxxxxxxxxxx |xxxxxxxxxxxxx |xxxxxxxxxxxxx |            0 |            0 |            0 |xxxxxxxxxxxxx |xxxxxxxxxxxxx |xxxxxxxxxxxxx |xxxxxxxxxxxxx |            0 |            0 |            0 |xxxxxxxxxxxxx |xxxxxxxxxxxxx |xxxxxxxxxxxxx |xxxxxxxxxxxxx |            0 |            0 |            0 |xxxxxxxxxxxxx |xxxxxxxxxxxxx |xxxxxxxxxxxxx |xxxxxxxxxxxxx |            0 |            0 |            0 |xxxxxxxxxxxxx |xxxxxxxxxxxxx |xxxxxxxxxxxxx |xxxxxxxxxxxxx |            0 |            0 |            0 |
bpred_bimod.bpred_addr_rate                 0.7172 |       0.7172 |       0.7172 |xxxxxxxxxxxxx |xxxxxxxxxxxxx |xxxxxxxxxxxxx |xxxxxxxxxxxxx |       0.7122 |       0.7122 |       0.7122 |xxxxxxxxxxxxx |xxxxxxxxxxxxx |xxxxxxxxxxxxx |xxxxxxxxxxxxx |       0.7207 |       0.7207 |       0.7207 |xxxxxxxxxxxxx |xxxxxxxxxxxxx |xxxxxxxxxxxxx |xxxxxxxxxxxxx |       0.7193 |       0.7193 |       0.7193 |xxxxxxxxxxxxx |xxxxxxxxxxxxx |xxxxxxxxxxxxx |xxxxxxxxxxxxx |       0.7278 |       0.7278 |       0.7278 |xxxxxxxxxxxxx |xxxxxxxxxxxxx |xxxxxxxxxxxxx |xxxxxxxxxxxxx |       0.7329 |       0.7329 |       0.7329 |xxxxxxxxxxxxx |xxxxxxxxxxxxx |xxxxxxxxxxxxx |xxxxxxxxxxxxx |       0.7275 |       0.7275 |       0.7275 |xxxxxxxxxxxxx |xxxxxxxxxxxxx |xxxxxxxxxxxxx |xxxxxxxxxxxxx |       0.7301 |       0.7301 |       0.7301 |xxxxxxxxxxxxx |xxxxxxxxxxxxx |xxxxxxxxxxxxx |xxxxxxxxxxxxx |       0.7375 |       0.7375 |       0.7375 |xxxxxxxxxxxxx |xxxxxxxxxxxxx |xxxxxxxxxxxxx |xxxxxxxxxxxxx |       0.7256 |       0.7256 |       0.7256 |xxxxxxxxxxxxx |xxxxxxxxxxxxx |xxxxxxxxxxxxx |xxxxxxxxxxxxx |       0.7313 |       0.7313 |       0.7313 |
bpred_bimod.bpred_dir_rate                  0.7187 |       0.7186 |       0.7187 |xxxxxxxxxxxxx |xxxxxxxxxxxxx |xxxxxxxxxxxxx |xxxxxxxxxxxxx |       0.7129 |       0.7129 |       0.7129 |xxxxxxxxxxxxx |xxxxxxxxxxxxx |xxxxxxxxxxxxx |xxxxxxxxxxxxx |       0.7210 |       0.7210 |       0.7210 |xxxxxxxxxxxxx |xxxxxxxxxxxxx |xxxxxxxxxxxxx |xxxxxxxxxxxxx |       0.7195 |       0.7195 |       0.7195 |xxxxxxxxxxxxx |xxxxxxxxxxxxx |xxxxxxxxxxxxx |xxxxxxxxxxxxx |       0.7279 |       0.7279 |       0.7279 |xxxxxxxxxxxxx |xxxxxxxxxxxxx |xxxxxxxxxxxxx |xxxxxxxxxxxxx |       0.7330 |       0.7330 |       0.7330 |xxxxxxxxxxxxx |xxxxxxxxxxxxx |xxxxxxxxxxxxx |xxxxxxxxxxxxx |       0.7275 |       0.7275 |       0.7275 |xxxxxxxxxxxxx |xxxxxxxxxxxxx |xxxxxxxxxxxxx |xxxxxxxxxxxxx |       0.7301 |       0.7301 |       0.7301 |xxxxxxxxxxxxx |xxxxxxxxxxxxx |xxxxxxxxxxxxx |xxxxxxxxxxxxx |       0.7375 |       0.7375 |       0.7375 |xxxxxxxxxxxxx |xxxxxxxxxxxxx |xxxxxxxxxxxxx |xxxxxxxxxxxxx |       0.7256 |       0.7256 |       0.7256 |xxxxxxxxxxxxx |xxxxxxxxxxxxx |xxxxxxxxxxxxx |xxxxxxxxxxxxx |       0.7313 |       0.7313 |       0.7313 |
bpred_bimod.bpred_jr_rate                   1.0000 |       1.0000 |       1.0000 |xxxxxxxxxxxxx |xxxxxxxxxxxxx |xxxxxxxxxxxxx |xxxxxxxxxxxxx |       1.0000 |       1.0000 |       1.0000 |xxxxxxxxxxxxx |xxxxxxxxxxxxx |xxxxxxxxxxxxx |xxxxxxxxxxxxx |       1.0000 |       1.0000 |       1.0000 |xxxxxxxxxxxxx |xxxxxxxxxxxxx |xxxxxxxxxxxxx |xxxxxxxxxxxxx |       1.0000 |       1.0000 |       1.0000 |xxxxxxxxxxxxx |xxxxxxxxxxxxx |xxxxxxxxxxxxx |xxxxxxxxxxxxx |       1.0000 |       1.0000 |       1.0000 |xxxxxxxxxxxxx |xxxxxxxxxxxxx |xxxxxxxxxxxxx |xxxxxxxxxxxxx |       1.0000 |       1.0000 |       1.0000 |xxxxxxxxxxxxx |xxxxxxxxxxxxx |xxxxxxxxxxxxx |xxxxxxxxxxxxx |       1.0000 |       1.0000 |       1.0000 |xxxxxxxxxxxxx |xxxxxxxxxxxxx |xxxxxxxxxxxxx |xxxxxxxxxxxxx |       1.0000 |       1.0000 |       1.0000 |xxxxxxxxxxxxx |xxxxxxxxxxxxx |xxxxxxxxxxxxx |xxxxxxxxxxxxx |       1.0000 |       1.0000 |       1.0000 |xxxxxxxxxxxxx |xxxxxxxxxxxxx |xxxxxxxxxxxxx |xxxxxxxxxxxxx |       1.0000 |       1.0000 |       1.0000 |xxxxxxxxxxxxx |xxxxxxxxxxxxx |xxxxxxxxxxxxx |xxxxxxxxxxxxx |       1.0000 |       1.0000 |       1.0000 |
bpred_bimod.bpred_jr_non_ras_rate.PP       <error: |      <error: |      <error: |xxxxxxxxxxxxx |xxxxxxxxxxxxx |xxxxxxxxxxxxx |xxxxxxxxxxxxx |      <error: |      <error: |      <error: |xxxxxxxxxxxxx |xxxxxxxxxxxxx |xxxxxxxxxxxxx |xxxxxxxxxxxxx |      <error: |      <error: |      <error: |xxxxxxxxxxxxx |xxxxxxxxxxxxx |xxxxxxxxxxxxx |xxxxxxxxxxxxx |      <error: |      <error: |      <error: |xxxxxxxxxxxxx |xxxxxxxxxxxxx |xxxxxxxxxxxxx |xxxxxxxxxxxxx |      <error: |      <error: |      <error: |xxxxxxxxxxxxx |xxxxxxxxxxxxx |xxxxxxxxxxxxx |xxxxxxxxxxxxx |      <error: |      <error: |      <error: |xxxxxxxxxxxxx |xxxxxxxxxxxxx |xxxxxxxxxxxxx |xxxxxxxxxxxxx |      <error: |      <error: |      <error: |xxxxxxxxxxxxx |xxxxxxxxxxxxx |xxxxxxxxxxxxx |xxxxxxxxxxxxx |      <error: |      <error: |      <error: |xxxxxxxxxxxxx |xxxxxxxxxxxxx |xxxxxxxxxxxxx |xxxxxxxxxxxxx |      <error: |      <error: |      <error: |xxxxxxxxxxxxx |xxxxxxxxxxxxx |xxxxxxxxxxxxx |xxxxxxxxxxxxx |      <error: |      <error: |      <error: |xxxxxxxxxxxxx |xxxxxxxxxxxxx |xxxxxxxxxxxxx |xxxxxxxxxxxxx |      <error: |      <error: |      <error: |
bpred_bimod.retstack_pushes                     66 |           66 |           66 |xxxxxxxxxxxxx |xxxxxxxxxxxxx |xxxxxxxxxxxxx |xxxxxxxxxxxxx |           66 |           66 |           66 |xxxxxxxxxxxxx |xxxxxxxxxxxxx |xxxxxxxxxxxxx |xxxxxxxxxxxxx |           66 |           66 |           66 |xxxxxxxxxxxxx |xxxxxxxxxxxxx |xxxxxxxxxxxxx |xxxxxxxxxxxxx |           66 |           66 |           66 |xxxxxxxxxxxxx |xxxxxxxxxxxxx |xxxxxxxxxxxxx |xxxxxxxxxxxxx |           66 |           66 |           66 |xxxxxxxxxxxxx |xxxxxxxxxxxxx |xxxxxxxxxxxxx |xxxxxxxxxxxxx |           66 |           66 |           66 |xxxxxxxxxxxxx |xxxxxxxxxxxxx |xxxxxxxxxxxxx |xxxxxxxxxxxxx |           66 |           66 |           66 |xxxxxxxxxxxxx |xxxxxxxxxxxxx |xxxxxxxxxxxxx |xxxxxxxxxxxxx |           66 |           66 |           66 |xxxxxxxxxxxxx |xxxxxxxxxxxxx |xxxxxxxxxxxxx |xxxxxxxxxxxxx |           66 |           66 |           66 |xxxxxxxxxxxxx |xxxxxxxxxxxxx |xxxxxxxxxxxxx |xxxxxxxxxxxxx |           66 |           66 |           66 |xxxxxxxxxxxxx |xxxxxxxxxxxxx |xxxxxxxxxxxxx |xxxxxxxxxxxxx |           66 |           66 |           66 |
bpred_bimod.retstack_pops                       64 |           64 |           64 |xxxxxxxxxxxxx |xxxxxxxxxxxxx |xxxxxxxxxxxxx |xxxxxxxxxxxxx |           64 |           64 |           64 |xxxxxxxxxxxxx |xxxxxxxxxxxxx |xxxxxxxxxxxxx |xxxxxxxxxxxxx |           64 |           64 |           64 |xxxxxxxxxxxxx |xxxxxxxxxxxxx |xxxxxxxxxxxxx |xxxxxxxxxxxxx |           64 |           64 |           64 |xxxxxxxxxxxxx |xxxxxxxxxxxxx |xxxxxxxxxxxxx |xxxxxxxxxxxxx |           64 |           64 |           64 |xxxxxxxxxxxxx |xxxxxxxxxxxxx |xxxxxxxxxxxxx |xxxxxxxxxxxxx |           64 |           64 |           64 |xxxxxxxxxxxxx |xxxxxxxxxxxxx |xxxxxxxxxxxxx |xxxxxxxxxxxxx |           64 |           64 |           64 |xxxxxxxxxxxxx |xxxxxxxxxxxxx |xxxxxxxxxxxxx |xxxxxxxxxxxxx |           64 |           64 |           64 |xxxxxxxxxxxxx |xxxxxxxxxxxxx |xxxxxxxxxxxxx |xxxxxxxxxxxxx |           64 |           64 |           64 |xxxxxxxxxxxxx |xxxxxxxxxxxxx |xxxxxxxxxxxxx |xxxxxxxxxxxxx |           64 |           64 |           64 |xxxxxxxxxxxxx |xxxxxxxxxxxxx |xxxxxxxxxxxxx |xxxxxxxxxxxxx |           64 |           64 |           64 |
bpred_bimod.used_ras.PP                         64 |           64 |           64 |xxxxxxxxxxxxx |xxxxxxxxxxxxx |xxxxxxxxxxxxx |xxxxxxxxxxxxx |           64 |           64 |           64 |xxxxxxxxxxxxx |xxxxxxxxxxxxx |xxxxxxxxxxxxx |xxxxxxxxxxxxx |           64 |           64 |           64 |xxxxxxxxxxxxx |xxxxxxxxxxxxx |xxxxxxxxxxxxx |xxxxxxxxxxxxx |           64 |           64 |           64 |xxxxxxxxxxxxx |xxxxxxxxxxxxx |xxxxxxxxxxxxx |xxxxxxxxxxxxx |           64 |           64 |           64 |xxxxxxxxxxxxx |xxxxxxxxxxxxx |xxxxxxxxxxxxx |xxxxxxxxxxxxx |           64 |           64 |           64 |xxxxxxxxxxxxx |xxxxxxxxxxxxx |xxxxxxxxxxxxx |xxxxxxxxxxxxx |           64 |           64 |           64 |xxxxxxxxxxxxx |xxxxxxxxxxxxx |xxxxxxxxxxxxx |xxxxxxxxxxxxx |           64 |           64 |           64 |xxxxxxxxxxxxx |xxxxxxxxxxxxx |xxxxxxxxxxxxx |xxxxxxxxxxxxx |           64 |           64 |           64 |xxxxxxxxxxxxx |xxxxxxxxxxxxx |xxxxxxxxxxxxx |xxxxxxxxxxxxx |           64 |           64 |           64 |xxxxxxxxxxxxx |xxxxxxxxxxxxx |xxxxxxxxxxxxx |xxxxxxxxxxxxx |           64 |           64 |           64 |
bpred_bimod.ras_hits.PP                         64 |           64 |           64 |xxxxxxxxxxxxx |xxxxxxxxxxxxx |xxxxxxxxxxxxx |xxxxxxxxxxxxx |           64 |           64 |           64 |xxxxxxxxxxxxx |xxxxxxxxxxxxx |xxxxxxxxxxxxx |xxxxxxxxxxxxx |           64 |           64 |           64 |xxxxxxxxxxxxx |xxxxxxxxxxxxx |xxxxxxxxxxxxx |xxxxxxxxxxxxx |           64 |           64 |           64 |xxxxxxxxxxxxx |xxxxxxxxxxxxx |xxxxxxxxxxxxx |xxxxxxxxxxxxx |           64 |           64 |           64 |xxxxxxxxxxxxx |xxxxxxxxxxxxx |xxxxxxxxxxxxx |xxxxxxxxxxxxx |           64 |           64 |           64 |xxxxxxxxxxxxx |xxxxxxxxxxxxx |xxxxxxxxxxxxx |xxxxxxxxxxxxx |           64 |           64 |           64 |xxxxxxxxxxxxx |xxxxxxxxxxxxx |xxxxxxxxxxxxx |xxxxxxxxxxxxx |           64 |           64 |           64 |xxxxxxxxxxxxx |xxxxxxxxxxxxx |xxxxxxxxxxxxx |xxxxxxxxxxxxx |           64 |           64 |           64 |xxxxxxxxxxxxx |xxxxxxxxxxxxx |xxxxxxxxxxxxx |xxxxxxxxxxxxx |           64 |           64 |           64 |xxxxxxxxxxxxx |xxxxxxxxxxxxx |xxxxxxxxxxxxx |xxxxxxxxxxxxx |           64 |           64 |           64 |
bpred_bimod.ras_rate.PP                     1.0000 |       1.0000 |       1.0000 |xxxxxxxxxxxxx |xxxxxxxxxxxxx |xxxxxxxxxxxxx |xxxxxxxxxxxxx |       1.0000 |       1.0000 |       1.0000 |xxxxxxxxxxxxx |xxxxxxxxxxxxx |xxxxxxxxxxxxx |xxxxxxxxxxxxx |       1.0000 |       1.0000 |       1.0000 |xxxxxxxxxxxxx |xxxxxxxxxxxxx |xxxxxxxxxxxxx |xxxxxxxxxxxxx |       1.0000 |       1.0000 |       1.0000 |xxxxxxxxxxxxx |xxxxxxxxxxxxx |xxxxxxxxxxxxx |xxxxxxxxxxxxx |       1.0000 |       1.0000 |       1.0000 |xxxxxxxxxxxxx |xxxxxxxxxxxxx |xxxxxxxxxxxxx |xxxxxxxxxxxxx |       1.0000 |       1.0000 |       1.0000 |xxxxxxxxxxxxx |xxxxxxxxxxxxx |xxxxxxxxxxxxx |xxxxxxxxxxxxx |       1.0000 |       1.0000 |       1.0000 |xxxxxxxxxxxxx |xxxxxxxxxxxxx |xxxxxxxxxxxxx |xxxxxxxxxxxxx |       1.0000 |       1.0000 |       1.0000 |xxxxxxxxxxxxx |xxxxxxxxxxxxx |xxxxxxxxxxxxx |xxxxxxxxxxxxx |       1.0000 |       1.0000 |       1.0000 |xxxxxxxxxxxxx |xxxxxxxxxxxxx |xxxxxxxxxxxxx |xxxxxxxxxxxxx |       1.0000 |       1.0000 |       1.0000 |xxxxxxxxxxxxx |xxxxxxxxxxxxx |xxxxxxxxxxxxx |xxxxxxxxxxxxx |       1.0000 |       1.0000 |       1.0000 |
bpred_2lev.lookups                   xxxxxxxxxxxxx |xxxxxxxxxxxxx |xxxxxxxxxxxxx |        76487 |        76487 |        76487 |        76487 |xxxxxxxxxxxxx |xxxxxxxxxxxxx |xxxxxxxxxxxxx |       163594 |       163594 |       163594 |       163594 |xxxxxxxxxxxxx |xxxxxxxxxxxxx |xxxxxxxxxxxxx |       356576 |       356576 |       356576 |       356576 |xxxxxxxxxxxxx |xxxxxxxxxxxxx |xxxxxxxxxxxxx |       765574 |       765574 |       765574 |       765574 |xxxxxxxxxxxxx |xxxxxxxxxxxxx |xxxxxxxxxxxxx |      1647036 |      1647036 |      1647036 |      1647036 |xxxxxxxxxxxxx |xxxxxxxxxxxxx |xxxxxxxxxxxxx |      3555183 |      3555183 |      3555183 |      3555183 |xxxxxxxxxxxxx |xxxxxxxxxxxxx |xxxxxxxxxxxxx |      7433609 |      7433609 |      7433609 |      7433609 |xxxxxxxxxxxxx |xxxxxxxxxxxxx |xxxxxxxxxxxxx |     15763155 |     15763155 |     15763155 |     15763155 |xxxxxxxxxxxxx |xxxxxxxxxxxxx |xxxxxxxxxxxxx |     33829619 |     33829619 |     33829619 |     33829619 |xxxxxxxxxxxxx |xxxxxxxxxxxxx |xxxxxxxxxxxxx |     69773915 |     69773915 |     69773915 |     69773915 |xxxxxxxxxxxxx |xxxxxxxxxxxxx |xxxxxxxxxxxxx |    148192975 |    148192975 |    148192975 |    148192975 |
[...]
bpred_2lev.retstack_pops             xxxxxxxxxxxxx |xxxxxxxxxxxxx |xxxxxxxxxxxxx |           64 |           64 |           64 |           64 |xxxxxxxxxxxxx |xxxxxxxxxxxxx |xxxxxxxxxxxxx |           64 |           64 |           64 |           64 |xxxxxxxxxxxxx |xxxxxxxxxxxxx |xxxxxxxxxxxxx |           64 |           64 |           64 |           64 |xxxxxxxxxxxxx |xxxxxxxxxxxxx |xxxxxxxxxxxxx |           64 |           64 |           64 |           64 |xxxxxxxxxxxxx |xxxxxxxxxxxxx |xxxxxxxxxxxxx |           64 |           64 |           64 |           64 |xxxxxxxxxxxxx |xxxxxxxxxxxxx |xxxxxxxxxxxxx |           64 |           64 |           64 |           64 |xxxxxxxxxxxxx |xxxxxxxxxxxxx |xxxxxxxxxxxxx |           64 |           64 |           64 |           64 |xxxxxxxxxxxxx |xxxxxxxxxxxxx |xxxxxxxxxxxxx |           64 |           64 |           64 |           64 |xxxxxxxxxxxxx |xxxxxxxxxxxxx |xxxxxxxxxxxxx |           64 |           64 |           64 |           64 |xxxxxxxxxxxxx |xxxxxxxxxxxxx |xxxxxxxxxxxxx |           64 |           64 |           64 |           64 |xxxxxxxxxxxxx |xxxxxxxxxxxxx |xxxxxxxxxxxxx |           64 |           64 |           64 |           64 |
bpred_2lev.used_ras.PP               xxxxxxxxxxxxx |xxxxxxxxxxxxx |xxxxxxxxxxxxx |           64 |           64 |           64 |           64 |xxxxxxxxxxxxx |xxxxxxxxxxxxx |xxxxxxxxxxxxx |           64 |           64 |           64 |           64 |xxxxxxxxxxxxx |xxxxxxxxxxxxx |xxxxxxxxxxxxx |           64 |           64 |           64 |           64 |xxxxxxxxxxxxx |xxxxxxxxxxxxx |xxxxxxxxxxxxx |           64 |           64 |           64 |           64 |xxxxxxxxxxxxx |xxxxxxxxxxxxx |xxxxxxxxxxxxx |           64 |           64 |           64 |           64 |xxxxxxxxxxxxx |xxxxxxxxxxxxx |xxxxxxxxxxxxx |           64 |           64 |           64 |           64 |xxxxxxxxxxxxx |xxxxxxxxxxxxx |xxxxxxxxxxxxx |           64 |           64 |           64 |           64 |xxxxxxxxxxxxx |xxxxxxxxxxxxx |xxxxxxxxxxxxx |           64 |           64 |           64 |           64 |xxxxxxxxxxxxx |xxxxxxxxxxxxx |xxxxxxxxxxxxx |           64 |           64 |           64 |           64 |xxxxxxxxxxxxx |xxxxxxxxxxxxx |xxxxxxxxxxxxx |           64 |           64 |           64 |           64 |xxxxxxxxxxxxx |xxxxxxxxxxxxx |xxxxxxxxxxxxx |           64 |           64 |           64 |           64 |
bpred_2lev.ras_hits.PP               xxxxxxxxxxxxx |xxxxxxxxxxxxx |xxxxxxxxxxxxx |           64 |           64 |           64 |           64 |xxxxxxxxxxxxx |xxxxxxxxxxxxx |xxxxxxxxxxxxx |           64 |           64 |           64 |           64 |xxxxxxxxxxxxx |xxxxxxxxxxxxx |xxxxxxxxxxxxx |           64 |           64 |           64 |           64 |xxxxxxxxxxxxx |xxxxxxxxxxxxx |xxxxxxxxxxxxx |           64 |           64 |           64 |           64 |xxxxxxxxxxxxx |xxxxxxxxxxxxx |xxxxxxxxxxxxx |           64 |           64 |           64 |           64 |xxxxxxxxxxxxx |xxxxxxxxxxxxx |xxxxxxxxxxxxx |           64 |           64 |           64 |           64 |xxxxxxxxxxxxx |xxxxxxxxxxxxx |xxxxxxxxxxxxx |           64 |           64 |           64 |           64 |xxxxxxxxxxxxx |xxxxxxxxxxxxx |xxxxxxxxxxxxx |           64 |           64 |           64 |           64 |xxxxxxxxxxxxx |xxxxxxxxxxxxx |xxxxxxxxxxxxx |           64 |           64 |           64 |           64 |xxxxxxxxxxxxx |xxxxxxxxxxxxx |xxxxxxxxxxxxx |           64 |           64 |           64 |           64 |xxxxxxxxxxxxx |xxxxxxxxxxxxx |xxxxxxxxxxxxx |           64 |           64 |           64 |           64 |
bpred_2lev.ras_rate.PP               xxxxxxxxxxxxx |xxxxxxxxxxxxx |xxxxxxxxxxxxx |       1.0000 |       1.0000 |       1.0000 |       1.0000 |xxxxxxxxxxxxx |xxxxxxxxxxxxx |xxxxxxxxxxxxx |       1.0000 |       1.0000 |       1.0000 |       1.0000 |xxxxxxxxxxxxx |xxxxxxxxxxxxx |xxxxxxxxxxxxx |       1.0000 |       1.0000 |       1.0000 |       1.0000 |xxxxxxxxxxxxx |xxxxxxxxxxxxx |xxxxxxxxxxxxx |       1.0000 |       1.0000 |       1.0000 |       1.0000 |xxxxxxxxxxxxx |xxxxxxxxxxxxx |xxxxxxxxxxxxx |       1.0000 |       1.0000 |       1.0000 |       1.0000 |xxxxxxxxxxxxx |xxxxxxxxxxxxx |xxxxxxxxxxxxx |       1.0000 |       1.0000 |       1.0000 |       1.0000 |xxxxxxxxxxxxx |xxxxxxxxxxxxx |xxxxxxxxxxxxx |       1.0000 |       1.0000 |       1.0000 |       1.0000 |xxxxxxxxxxxxx |xxxxxxxxxxxxx |xxxxxxxxxxxxx |       1.0000 |       1.0000 |       1.0000 |       1.0000 |xxxxxxxxxxxxx |xxxxxxxxxxxxx |xxxxxxxxxxxxx |       1.0000 |       1.0000 |       1.0000 |       1.0000 |xxxxxxxxxxxxx |xxxxxxxxxxxxx |xxxxxxxxxxxxx |       1.0000 |       1.0000 |       1.0000 |       1.0000 |xxxxxxxxxxxxx |xxxxxxxxxxxxx |xxxxxxxxxxxxx |       1.0000 |       1.0000 |       1.0000 |       1.0000 |

Command list: 
	sslittle-na-sstrix-gcc -Wall -O3 -funroll-loops -finline-functions  -DRANDOM_SIZE=4096 -DOFFSET=3 -DSORT=memory_tuned_quicksort sorts/memory_tuned_quicksort1907895882.c simpleMain.c -o memory_tuned_quicksort444075683
	sim-cache -cache:dl1 dl1:256:32:1:l -cache:dl2 dl2:131072:32:1:l -cache:il1 il1:256:32:1:l -cache:il2 dl2 memory_tuned_quicksort444075683
	sim-cache -cache:dl1 dl1:256:32:1:l -cache:dl2 dl2:65536:32:1:l -cache:il1 il1:256:32:1:l -cache:il2 dl2 memory_tuned_quicksort444075683
	sim-cache -cache:dl1 dl1:1:32:256:l -cache:dl2 dl2:1:32:131072:l -cache:il1 il1:1:32:256:l -cache:il2 dl2 memory_tuned_quicksort444075683
	sim-cache -cache:dl1 dl1:1:32:256:l -cache:dl2 dl2:1:32:65536:l -cache:il1 il1:1:32:256:l -cache:il2 dl2 memory_tuned_quicksort444075683
	sim-bpred -bpred bimod -bpred:bimod 512 memory_tuned_quicksort444075683
	sim-bpred -bpred bimod -bpred:bimod 1024 memory_tuned_quicksort444075683
	sim-bpred -bpred bimod -bpred:bimod 2048 memory_tuned_quicksort444075683
	sim-bpred -bpred 2lev -bpred:2lev 1 512 10 1 memory_tuned_quicksort444075683
	sim-bpred -bpred 2lev -bpred:2lev 1 1024 10 1 memory_tuned_quicksort444075683
	sim-bpred -bpred 2lev -bpred:2lev 1 2048 10 1 memory_tuned_quicksort444075683
	sim-bpred -bpred 2lev -bpred:2lev 1 4096 10 1 memory_tuned_quicksort444075683
	sslittle-na-sstrix-gcc -Wall -O3 -funroll-loops -finline-functions  -DRANDOM_SIZE=8192 -DOFFSET=3 -DSORT=memory_tuned_quicksort sorts/memory_tuned_quicksort1907895882.c simpleMain.c -o memory_tuned_quicksort444075683
	sim-cache -cache:dl1 dl1:256:32:1:l -cache:dl2 dl2:131072:32:1:l -cache:il1 il1:256:32:1:l -cache:il2 dl2 memory_tuned_quicksort444075683
	sim-cache -cache:dl1 dl1:256:32:1:l -cache:dl2 dl2:65536:32:1:l -cache:il1 il1:256:32:1:l -cache:il2 dl2 memory_tuned_quicksort444075683
	sim-cache -cache:dl1 dl1:1:32:256:l -cache:dl2 dl2:1:32:131072:l -cache:il1 il1:1:32:256:l -cache:il2 dl2 memory_tuned_quicksort444075683
	sim-cache -cache:dl1 dl1:1:32:256:l -cache:dl2 dl2:1:32:65536:l -cache:il1 il1:1:32:256:l -cache:il2 dl2 memory_tuned_quicksort444075683
	sim-bpred -bpred bimod -bpred:bimod 512 memory_tuned_quicksort444075683
	sim-bpred -bpred bimod -bpred:bimod 1024 memory_tuned_quicksort444075683
	sim-bpred -bpred bimod -bpred:bimod 2048 memory_tuned_quicksort444075683
	sim-bpred -bpred 2lev -bpred:2lev 1 512 10 1 memory_tuned_quicksort444075683
	sim-bpred -bpred 2lev -bpred:2lev 1 1024 10 1 memory_tuned_quicksort444075683
	sim-bpred -bpred 2lev -bpred:2lev 1 2048 10 1 memory_tuned_quicksort444075683
	sim-bpred -bpred 2lev -bpred:2lev 1 4096 10 1 memory_tuned_quicksort444075683
	sslittle-na-sstrix-gcc -Wall -O3 -funroll-loops -finline-functions  -DRANDOM_SIZE=16384 -DOFFSET=3 -DSORT=memory_tuned_quicksort sorts/memory_tuned_quicksort1907895882.c simpleMain.c -o memory_tuned_quicksort444075683
	sim-cache -cache:dl1 dl1:256:32:1:l -cache:dl2 dl2:131072:32:1:l -cache:il1 il1:256:32:1:l -cache:il2 dl2 memory_tuned_quicksort444075683
	sim-cache -cache:dl1 dl1:256:32:1:l -cache:dl2 dl2:65536:32:1:l -cache:il1 il1:256:32:1:l -cache:il2 dl2 memory_tuned_quicksort444075683
	sim-cache -cache:dl1 dl1:1:32:256:l -cache:dl2 dl2:1:32:131072:l -cache:il1 il1:1:32:256:l -cache:il2 dl2 memory_tuned_quicksort444075683
	sim-cache -cache:dl1 dl1:1:32:256:l -cache:dl2 dl2:1:32:65536:l -cache:il1 il1:1:32:256:l -cache:il2 dl2 memory_tuned_quicksort444075683
	sim-bpred -bpred bimod -bpred:bimod 512 memory_tuned_quicksort444075683
	sim-bpred -bpred bimod -bpred:bimod 1024 memory_tuned_quicksort444075683
	sim-bpred -bpred bimod -bpred:bimod 2048 memory_tuned_quicksort444075683
	sim-bpred -bpred 2lev -bpred:2lev 1 512 10 1 memory_tuned_quicksort444075683
	sim-bpred -bpred 2lev -bpred:2lev 1 1024 10 1 memory_tuned_quicksort444075683
	sim-bpred -bpred 2lev -bpred:2lev 1 2048 10 1 memory_tuned_quicksort444075683
	sim-bpred -bpred 2lev -bpred:2lev 1 4096 10 1 memory_tuned_quicksort444075683
	sslittle-na-sstrix-gcc -Wall -O3 -funroll-loops -finline-functions  -DRANDOM_SIZE=32768 -DOFFSET=3 -DSORT=memory_tuned_quicksort sorts/memory_tuned_quicksort1907895882.c simpleMain.c -o memory_tuned_quicksort444075683
	sim-cache -cache:dl1 dl1:256:32:1:l -cache:dl2 dl2:131072:32:1:l -cache:il1 il1:256:32:1:l -cache:il2 dl2 memory_tuned_quicksort444075683
	sim-cache -cache:dl1 dl1:256:32:1:l -cache:dl2 dl2:65536:32:1:l -cache:il1 il1:256:32:1:l -cache:il2 dl2 memory_tuned_quicksort444075683
	sim-cache -cache:dl1 dl1:1:32:256:l -cache:dl2 dl2:1:32:131072:l -cache:il1 il1:1:32:256:l -cache:il2 dl2 memory_tuned_quicksort444075683
	sim-cache -cache:dl1 dl1:1:32:256:l -cache:dl2 dl2:1:32:65536:l -cache:il1 il1:1:32:256:l -cache:il2 dl2 memory_tuned_quicksort444075683
	sim-bpred -bpred bimod -bpred:bimod 512 memory_tuned_quicksort444075683
	sim-bpred -bpred bimod -bpred:bimod 1024 memory_tuned_quicksort444075683
	sim-bpred -bpred bimod -bpred:bimod 2048 memory_tuned_quicksort444075683
	sim-bpred -bpred 2lev -bpred:2lev 1 512 10 1 memory_tuned_quicksort444075683
	sim-bpred -bpred 2lev -bpred:2lev 1 1024 10 1 memory_tuned_quicksort444075683
	sim-bpred -bpred 2lev -bpred:2lev 1 2048 10 1 memory_tuned_quicksort444075683
	sim-bpred -bpred 2lev -bpred:2lev 1 4096 10 1 memory_tuned_quicksort444075683
	sslittle-na-sstrix-gcc -Wall -O3 -funroll-loops -finline-functions  -DRANDOM_SIZE=65536 -DOFFSET=3 -DSORT=memory_tuned_quicksort sorts/memory_tuned_quicksort1907895882.c simpleMain.c -o memory_tuned_quicksort444075683
	sim-cache -cache:dl1 dl1:256:32:1:l -cache:dl2 dl2:131072:32:1:l -cache:il1 il1:256:32:1:l -cache:il2 dl2 memory_tuned_quicksort444075683
	sim-cache -cache:dl1 dl1:256:32:1:l -cache:dl2 dl2:65536:32:1:l -cache:il1 il1:256:32:1:l -cache:il2 dl2 memory_tuned_quicksort444075683
	sim-cache -cache:dl1 dl1:1:32:256:l -cache:dl2 dl2:1:32:131072:l -cache:il1 il1:1:32:256:l -cache:il2 dl2 memory_tuned_quicksort444075683
	sim-cache -cache:dl1 dl1:1:32:256:l -cache:dl2 dl2:1:32:65536:l -cache:il1 il1:1:32:256:l -cache:il2 dl2 memory_tuned_quicksort444075683
	sim-bpred -bpred bimod -bpred:bimod 512 memory_tuned_quicksort444075683
	sim-bpred -bpred bimod -bpred:bimod 1024 memory_tuned_quicksort444075683
	sim-bpred -bpred bimod -bpred:bimod 2048 memory_tuned_quicksort444075683
	sim-bpred -bpred 2lev -bpred:2lev 1 512 10 1 memory_tuned_quicksort444075683
	sim-bpred -bpred 2lev -bpred:2lev 1 1024 10 1 memory_tuned_quicksort444075683
	sim-bpred -bpred 2lev -bpred:2lev 1 2048 10 1 memory_tuned_quicksort444075683
	sim-bpred -bpred 2lev -bpred:2lev 1 4096 10 1 memory_tuned_quicksort444075683
	sslittle-na-sstrix-gcc -Wall -O3 -funroll-loops -finline-functions  -DRANDOM_SIZE=131072 -DOFFSET=3 -DSORT=memory_tuned_quicksort sorts/memory_tuned_quicksort1907895882.c simpleMain.c -o memory_tuned_quicksort444075683
	sim-cache -cache:dl1 dl1:256:32:1:l -cache:dl2 dl2:131072:32:1:l -cache:il1 il1:256:32:1:l -cache:il2 dl2 memory_tuned_quicksort444075683
	sim-cache -cache:dl1 dl1:256:32:1:l -cache:dl2 dl2:65536:32:1:l -cache:il1 il1:256:32:1:l -cache:il2 dl2 memory_tuned_quicksort444075683
	sim-cache -cache:dl1 dl1:1:32:256:l -cache:dl2 dl2:1:32:131072:l -cache:il1 il1:1:32:256:l -cache:il2 dl2 memory_tuned_quicksort444075683
	sim-cache -cache:dl1 dl1:1:32:256:l -cache:dl2 dl2:1:32:65536:l -cache:il1 il1:1:32:256:l -cache:il2 dl2 memory_tuned_quicksort444075683
	sim-bpred -bpred bimod -bpred:bimod 512 memory_tuned_quicksort444075683
	sim-bpred -bpred bimod -bpred:bimod 1024 memory_tuned_quicksort444075683
	sim-bpred -bpred bimod -bpred:bimod 2048 memory_tuned_quicksort444075683
	sim-bpred -bpred 2lev -bpred:2lev 1 512 10 1 memory_tuned_quicksort444075683
	sim-bpred -bpred 2lev -bpred:2lev 1 1024 10 1 memory_tuned_quicksort444075683
	sim-bpred -bpred 2lev -bpred:2lev 1 2048 10 1 memory_tuned_quicksort444075683
	sim-bpred -bpred 2lev -bpred:2lev 1 4096 10 1 memory_tuned_quicksort444075683
	sslittle-na-sstrix-gcc -Wall -O3 -funroll-loops -finline-functions  -DRANDOM_SIZE=262144 -DOFFSET=3 -DSORT=memory_tuned_quicksort sorts/memory_tuned_quicksort1907895882.c simpleMain.c -o memory_tuned_quicksort444075683
	sim-cache -cache:dl1 dl1:256:32:1:l -cache:dl2 dl2:131072:32:1:l -cache:il1 il1:256:32:1:l -cache:il2 dl2 memory_tuned_quicksort444075683
	sim-cache -cache:dl1 dl1:256:32:1:l -cache:dl2 dl2:65536:32:1:l -cache:il1 il1:256:32:1:l -cache:il2 dl2 memory_tuned_quicksort444075683
	sim-cache -cache:dl1 dl1:1:32:256:l -cache:dl2 dl2:1:32:131072:l -cache:il1 il1:1:32:256:l -cache:il2 dl2 memory_tuned_quicksort444075683
	sim-cache -cache:dl1 dl1:1:32:256:l -cache:dl2 dl2:1:32:65536:l -cache:il1 il1:1:32:256:l -cache:il2 dl2 memory_tuned_quicksort444075683
	sim-bpred -bpred bimod -bpred:bimod 512 memory_tuned_quicksort444075683
	sim-bpred -bpred bimod -bpred:bimod 1024 memory_tuned_quicksort444075683
	sim-bpred -bpred bimod -bpred:bimod 2048 memory_tuned_quicksort444075683
	sim-bpred -bpred 2lev -bpred:2lev 1 512 10 1 memory_tuned_quicksort444075683
	sim-bpred -bpred 2lev -bpred:2lev 1 1024 10 1 memory_tuned_quicksort444075683
	sim-bpred -bpred 2lev -bpred:2lev 1 2048 10 1 memory_tuned_quicksort444075683
	sim-bpred -bpred 2lev -bpred:2lev 1 4096 10 1 memory_tuned_quicksort444075683
	sslittle-na-sstrix-gcc -Wall -O3 -funroll-loops -finline-functions  -DRANDOM_SIZE=524288 -DOFFSET=3 -DSORT=memory_tuned_quicksort sorts/memory_tuned_quicksort1907895882.c simpleMain.c -o memory_tuned_quicksort444075683
	sim-cache -cache:dl1 dl1:256:32:1:l -cache:dl2 dl2:131072:32:1:l -cache:il1 il1:256:32:1:l -cache:il2 dl2 memory_tuned_quicksort444075683
	sim-cache -cache:dl1 dl1:256:32:1:l -cache:dl2 dl2:65536:32:1:l -cache:il1 il1:256:32:1:l -cache:il2 dl2 memory_tuned_quicksort444075683
	sim-cache -cache:dl1 dl1:1:32:256:l -cache:dl2 dl2:1:32:131072:l -cache:il1 il1:1:32:256:l -cache:il2 dl2 memory_tuned_quicksort444075683
	sim-cache -cache:dl1 dl1:1:32:256:l -cache:dl2 dl2:1:32:65536:l -cache:il1 il1:1:32:256:l -cache:il2 dl2 memory_tuned_quicksort444075683
	sim-bpred -bpred bimod -bpred:bimod 512 memory_tuned_quicksort444075683
	sim-bpred -bpred bimod -bpred:bimod 1024 memory_tuned_quicksort444075683
	sim-bpred -bpred bimod -bpred:bimod 2048 memory_tuned_quicksort444075683
	sim-bpred -bpred 2lev -bpred:2lev 1 512 10 1 memory_tuned_quicksort444075683
	sim-bpred -bpred 2lev -bpred:2lev 1 1024 10 1 memory_tuned_quicksort444075683
	sim-bpred -bpred 2lev -bpred:2lev 1 2048 10 1 memory_tuned_quicksort444075683
	sim-bpred -bpred 2lev -bpred:2lev 1 4096 10 1 memory_tuned_quicksort444075683
	sslittle-na-sstrix-gcc -Wall -O3 -funroll-loops -finline-functions  -DRANDOM_SIZE=1048576 -DOFFSET=3 -DSORT=memory_tuned_quicksort sorts/memory_tuned_quicksort1907895882.c simpleMain.c -o memory_tuned_quicksort444075683
	sim-cache -cache:dl1 dl1:256:32:1:l -cache:dl2 dl2:131072:32:1:l -cache:il1 il1:256:32:1:l -cache:il2 dl2 memory_tuned_quicksort444075683
	sim-cache -cache:dl1 dl1:256:32:1:l -cache:dl2 dl2:65536:32:1:l -cache:il1 il1:256:32:1:l -cache:il2 dl2 memory_tuned_quicksort444075683
	sim-cache -cache:dl1 dl1:1:32:256:l -cache:dl2 dl2:1:32:131072:l -cache:il1 il1:1:32:256:l -cache:il2 dl2 memory_tuned_quicksort444075683
	sim-cache -cache:dl1 dl1:1:32:256:l -cache:dl2 dl2:1:32:65536:l -cache:il1 il1:1:32:256:l -cache:il2 dl2 memory_tuned_quicksort444075683
	sim-bpred -bpred bimod -bpred:bimod 512 memory_tuned_quicksort444075683
	sim-bpred -bpred bimod -bpred:bimod 1024 memory_tuned_quicksort444075683
	sim-bpred -bpred bimod -bpred:bimod 2048 memory_tuned_quicksort444075683
	sim-bpred -bpred 2lev -bpred:2lev 1 512 10 1 memory_tuned_quicksort444075683
	sim-bpred -bpred 2lev -bpred:2lev 1 1024 10 1 memory_tuned_quicksort444075683
	sim-bpred -bpred 2lev -bpred:2lev 1 2048 10 1 memory_tuned_quicksort444075683
	sim-bpred -bpred 2lev -bpred:2lev 1 4096 10 1 memory_tuned_quicksort444075683
	sslittle-na-sstrix-gcc -Wall -O3 -funroll-loops -finline-functions  -DRANDOM_SIZE=2097152 -DOFFSET=3 -DSORT=memory_tuned_quicksort sorts/memory_tuned_quicksort1907895882.c simpleMain.c -o memory_tuned_quicksort444075683
	sim-cache -cache:dl1 dl1:256:32:1:l -cache:dl2 dl2:131072:32:1:l -cache:il1 il1:256:32:1:l -cache:il2 dl2 memory_tuned_quicksort444075683
	sim-cache -cache:dl1 dl1:256:32:1:l -cache:dl2 dl2:65536:32:1:l -cache:il1 il1:256:32:1:l -cache:il2 dl2 memory_tuned_quicksort444075683
	sim-cache -cache:dl1 dl1:1:32:256:l -cache:dl2 dl2:1:32:131072:l -cache:il1 il1:1:32:256:l -cache:il2 dl2 memory_tuned_quicksort444075683
	sim-cache -cache:dl1 dl1:1:32:256:l -cache:dl2 dl2:1:32:65536:l -cache:il1 il1:1:32:256:l -cache:il2 dl2 memory_tuned_quicksort444075683
	sim-bpred -bpred bimod -bpred:bimod 512 memory_tuned_quicksort444075683
	sim-bpred -bpred bimod -bpred:bimod 1024 memory_tuned_quicksort444075683
	sim-bpred -bpred bimod -bpred:bimod 2048 memory_tuned_quicksort444075683
	sim-bpred -bpred 2lev -bpred:2lev 1 512 10 1 memory_tuned_quicksort444075683
	sim-bpred -bpred 2lev -bpred:2lev 1 1024 10 1 memory_tuned_quicksort444075683
	sim-bpred -bpred 2lev -bpred:2lev 1 2048 10 1 memory_tuned_quicksort444075683
	sim-bpred -bpred 2lev -bpred:2lev 1 4096 10 1 memory_tuned_quicksort444075683
	sslittle-na-sstrix-gcc -Wall -O3 -funroll-loops -finline-functions  -DRANDOM_SIZE=4194304 -DOFFSET=3 -DSORT=memory_tuned_quicksort sorts/memory_tuned_quicksort1907895882.c simpleMain.c -o memory_tuned_quicksort444075683
	sim-cache -cache:dl1 dl1:256:32:1:l -cache:dl2 dl2:131072:32:1:l -cache:il1 il1:256:32:1:l -cache:il2 dl2 memory_tuned_quicksort444075683
	sim-cache -cache:dl1 dl1:256:32:1:l -cache:dl2 dl2:65536:32:1:l -cache:il1 il1:256:32:1:l -cache:il2 dl2 memory_tuned_quicksort444075683
	sim-cache -cache:dl1 dl1:1:32:256:l -cache:dl2 dl2:1:32:131072:l -cache:il1 il1:1:32:256:l -cache:il2 dl2 memory_tuned_quicksort444075683
	sim-cache -cache:dl1 dl1:1:32:256:l -cache:dl2 dl2:1:32:65536:l -cache:il1 il1:1:32:256:l -cache:il2 dl2 memory_tuned_quicksort444075683
	sim-bpred -bpred bimod -bpred:bimod 512 memory_tuned_quicksort444075683
	sim-bpred -bpred bimod -bpred:bimod 1024 memory_tuned_quicksort444075683
	sim-bpred -bpred bimod -bpred:bimod 2048 memory_tuned_quicksort444075683
	sim-bpred -bpred 2lev -bpred:2lev 1 512 10 1 memory_tuned_quicksort444075683
	sim-bpred -bpred 2lev -bpred:2lev 1 1024 10 1 memory_tuned_quicksort444075683
	sim-bpred -bpred 2lev -bpred:2lev 1 2048 10 1 memory_tuned_quicksort444075683
	sim-bpred -bpred 2lev -bpred:2lev 1 4096 10 1 memory_tuned_quicksort444075683
