Wed Jun 22 04:24:21 2005
Run as: "./do_simple -c random.org1 -o 1 memory_tuned_quicksort"
-------------------------------------------------------------------------------------------------
sim-cache                                     4096 |         4096 |         4096 |         4096 |         8192 |         8192 |         8192 |         8192 |        16384 |        16384 |        16384 |        16384 |        32768 |        32768 |        32768 |        32768 |        65536 |        65536 |        65536 |        65536 |       131072 |       131072 |       131072 |       131072 |       262144 |       262144 |       262144 |       262144 |       524288 |       524288 |       524288 |       524288 |      1048576 |      1048576 |      1048576 |      1048576 |      2097152 |      2097152 |      2097152 |      2097152 |      4194304 |      4194304 |      4194304 |      4194304 |
-cache:dl1 dl1:256:32:1:l -cache:dl2 dl2:131072:32:1:l -cache:il1 il1:256:32:1:l -cache:il2 dl2
-cache:dl1 dl1:256:32:1:l -cache:dl2 dl2:65536:32:1:l -cache:il1 il1:256:32:1:l -cache:il2 dl2
-cache:dl1 dl1:1:32:256:l -cache:dl2 dl2:1:32:131072:l -cache:il1 il1:1:32:256:l -cache:il2 dl2
-cache:dl1 dl1:1:32:256:l -cache:dl2 dl2:1:32:65536:l -cache:il1 il1:1:32:256:l -cache:il2 dl2
-------------------------------------------------------------------------------------------------
sim_num_insn                                460290 |       460290 |       460290 |       460290 |       989704 |       989704 |       989704 |       989704 |      2154847 |      2154847 |      2154847 |      2154847 |      4599872 |      4599872 |      4599872 |      4599872 |      9570153 |      9570153 |      9570153 |      9570153 |     20821196 |     20821196 |     20821196 |     20821196 |     43772702 |     43772702 |     43772702 |     43772702 |     91463006 |     91463006 |     91463006 |     91463006 |    196333761 |    196333761 |    196333761 |    196333761 |    410136904 |    410136904 |    410136904 |    410136904 |    878273346 |    878273346 |    878273346 |    878273346 |
sim_num_refs                                122256 |       122256 |       122256 |       122256 |       257994 |       257994 |       257994 |       257994 |       552230 |       552230 |       552230 |       552230 |      1170472 |      1170472 |      1170472 |      1170472 |      2442690 |      2442690 |      2442690 |      2442690 |      5227776 |      5227776 |      5227776 |      5227776 |     10974502 |     10974502 |     10974502 |     10974502 |     22936508 |     22936508 |     22936508 |     22936508 |     48601539 |     48601539 |     48601539 |     48601539 |    101403118 |    101403118 |    101403118 |    101403118 |    214672753 |    214672753 |    214672753 |    214672753 |
sim_elapsed_time                                 1 |            1 |            7 |            4 |            1 |            1 |            9 |            5 |            1 |            1 |           15 |            7 |            1 |            1 |           25 |           13 |            2 |            3 |           45 |           23 |            5 |            5 |           84 |           42 |           11 |           11 |          154 |           73 |           23 |           23 |          266 |          103 |           49 |           49 |          370 |          131 |          103 |          103 |          427 |          188 |          219 |          220 |          558 |          313 |
sim_inst_rate                          460290.0000 |  460290.0000 |   65755.7143 |  115072.5000 |  989704.0000 |  989704.0000 |  109967.1111 |  197940.8000 | 2154847.0000 | 2154847.0000 |  143656.4667 |  307835.2857 | 4599872.0000 | 4599872.0000 |  183994.8800 |  353836.3077 | 4785076.5000 | 3190051.0000 |  212670.0667 |  416093.6087 | 4164239.2000 | 4164239.2000 |  247871.3810 |  495742.7619 | 3979336.5455 | 3979336.5455 |  284238.3247 |  599626.0548 | 3976652.4348 | 3976652.4348 |  343845.8872 |  887990.3495 | 4006811.4490 | 4006811.4490 |  530631.7865 | 1498731.0000 | 3981911.6893 | 3981911.6893 |  960507.9719 | 2181579.2766 | 4010380.5753 | 3992151.5727 | 1573966.5699 | 2805985.1310 |
il1.accesses                                460290 |       460290 |       460290 |       460290 |       989704 |       989704 |       989704 |       989704 |      2154847 |      2154847 |      2154847 |      2154847 |      4599872 |      4599872 |      4599872 |      4599872 |      9570153 |      9570153 |      9570153 |      9570153 |     20821196 |     20821196 |     20821196 |     20821196 |     43772702 |     43772702 |     43772702 |     43772702 |     91463006 |     91463006 |     91463006 |     91463006 |    196333761 |    196333761 |    196333761 |    196333761 |    410136904 |    410136904 |    410136904 |    410136904 |    878273346 |    878273346 |    878273346 |    878273346 |
il1.hits                                    459833 |       459833 |       459862 |       459862 |       989249 |       989249 |       989279 |       989279 |      2154375 |      2154375 |      2154411 |      2154411 |      4599414 |      4599414 |      4599441 |      4599441 |      9569693 |      9569693 |      9569720 |      9569720 |     20820736 |     20820736 |     20820763 |     20820763 |     43772242 |     43772242 |     43772269 |     43772269 |     91462553 |     91462553 |     91462581 |     91462581 |    196333302 |    196333302 |    196333329 |    196333329 |    410136444 |    410136444 |    410136471 |    410136471 |    878272889 |    878272889 |    878272916 |    878272916 |
il1.misses                                     457 |          457 |          428 |          428 |          455 |          455 |          425 |          425 |          472 |          472 |          436 |          436 |          458 |          458 |          431 |          431 |          460 |          460 |          433 |          433 |          460 |          460 |          433 |          433 |          460 |          460 |          433 |          433 |          453 |          453 |          425 |          425 |          459 |          459 |          432 |          432 |          460 |          460 |          433 |          433 |          457 |          457 |          430 |          430 |
il1.replacements                               218 |          218 |          172 |          172 |          216 |          216 |          169 |          169 |          233 |          233 |          180 |          180 |          219 |          219 |          175 |          175 |          221 |          221 |          177 |          177 |          222 |          222 |          177 |          177 |          222 |          222 |          177 |          177 |          215 |          215 |          169 |          169 |          221 |          221 |          176 |          176 |          222 |          222 |          177 |          177 |          219 |          219 |          174 |          174 |
il1.writebacks                                   0 |            0 |            0 |            0 |            0 |            0 |            0 |            0 |            0 |            0 |            0 |            0 |            0 |            0 |            0 |            0 |            0 |            0 |            0 |            0 |            0 |            0 |            0 |            0 |            0 |            0 |            0 |            0 |            0 |            0 |            0 |            0 |            0 |            0 |            0 |            0 |            0 |            0 |            0 |            0 |            0 |            0 |            0 |            0 |
il1.invalidations                                0 |            0 |            0 |            0 |            0 |            0 |            0 |            0 |            0 |            0 |            0 |            0 |            0 |            0 |            0 |            0 |            0 |            0 |            0 |            0 |            0 |            0 |            0 |            0 |            0 |            0 |            0 |            0 |            0 |            0 |            0 |            0 |            0 |            0 |            0 |            0 |            0 |            0 |            0 |            0 |            0 |            0 |            0 |            0 |
il1.miss_rate                               0.0010 |       0.0010 |       0.0009 |       0.0009 |       0.0005 |       0.0005 |       0.0004 |       0.0004 |       0.0002 |       0.0002 |       0.0002 |       0.0002 |       0.0001 |       0.0001 |       0.0001 |       0.0001 |       0.0000 |       0.0000 |       0.0000 |       0.0000 |       0.0000 |       0.0000 |       0.0000 |       0.0000 |       0.0000 |       0.0000 |       0.0000 |       0.0000 |       0.0000 |       0.0000 |       0.0000 |       0.0000 |       0.0000 |       0.0000 |       0.0000 |       0.0000 |       0.0000 |       0.0000 |       0.0000 |       0.0000 |       0.0000 |       0.0000 |       0.0000 |       0.0000 |
il1.repl_rate                               0.0005 |       0.0005 |       0.0004 |       0.0004 |       0.0002 |       0.0002 |       0.0002 |       0.0002 |       0.0001 |       0.0001 |       0.0001 |       0.0001 |       0.0000 |       0.0000 |       0.0000 |       0.0000 |       0.0000 |       0.0000 |       0.0000 |       0.0000 |       0.0000 |       0.0000 |       0.0000 |       0.0000 |       0.0000 |       0.0000 |       0.0000 |       0.0000 |       0.0000 |       0.0000 |       0.0000 |       0.0000 |       0.0000 |       0.0000 |       0.0000 |       0.0000 |       0.0000 |       0.0000 |       0.0000 |       0.0000 |       0.0000 |       0.0000 |       0.0000 |       0.0000 |
il1.wb_rate                                 0.0000 |       0.0000 |       0.0000 |       0.0000 |       0.0000 |       0.0000 |       0.0000 |       0.0000 |       0.0000 |       0.0000 |       0.0000 |       0.0000 |       0.0000 |       0.0000 |       0.0000 |       0.0000 |       0.0000 |       0.0000 |       0.0000 |       0.0000 |       0.0000 |       0.0000 |       0.0000 |       0.0000 |       0.0000 |       0.0000 |       0.0000 |       0.0000 |       0.0000 |       0.0000 |       0.0000 |       0.0000 |       0.0000 |       0.0000 |       0.0000 |       0.0000 |       0.0000 |       0.0000 |       0.0000 |       0.0000 |       0.0000 |       0.0000 |       0.0000 |       0.0000 |
il1.inv_rate                                0.0000 |       0.0000 |       0.0000 |       0.0000 |       0.0000 |       0.0000 |       0.0000 |       0.0000 |       0.0000 |       0.0000 |       0.0000 |       0.0000 |       0.0000 |       0.0000 |       0.0000 |       0.0000 |       0.0000 |       0.0000 |       0.0000 |       0.0000 |       0.0000 |       0.0000 |       0.0000 |       0.0000 |       0.0000 |       0.0000 |       0.0000 |       0.0000 |       0.0000 |       0.0000 |       0.0000 |       0.0000 |       0.0000 |       0.0000 |       0.0000 |       0.0000 |       0.0000 |       0.0000 |       0.0000 |       0.0000 |       0.0000 |       0.0000 |       0.0000 |       0.0000 |
dl1.accesses                                138722 |       138722 |       138722 |       138722 |       290844 |       290844 |       290844 |       290844 |       617848 |       617848 |       617848 |       617848 |      1301626 |      1301626 |      1301626 |      1301626 |      2704916 |      2704916 |      2704916 |      2704916 |      5752146 |      5752146 |      5752146 |      5752146 |     12023160 |     12023160 |     12023160 |     12023160 |     25033742 |     25033742 |     25033742 |     25033742 |     52795925 |     52795925 |     52795925 |     52795925 |    109791808 |    109791808 |    109791808 |    109791808 |    231450051 |    231450051 |    231450051 |    231450051 |
dl1.hits                                    136686 |       136686 |       136703 |       136703 |       285800 |       285800 |       285745 |       285745 |       605330 |       605330 |       605301 |       605301 |      1272883 |      1272883 |      1273166 |      1273166 |      2642049 |      2642049 |      2642533 |      2642533 |      5595853 |      5595853 |      5597426 |      5597426 |     11679140 |     11679140 |     11682668 |     11682668 |     24296355 |     24296355 |     24302234 |     24302234 |     51079296 |     51079296 |     51098146 |     51098146 |    106081259 |    106081259 |    106126400 |    106126400 |    222950350 |    222950350 |    223058014 |    223058014 |
dl1.misses                                    2036 |         2036 |         2019 |         2019 |         5044 |         5044 |         5099 |         5099 |        12518 |        12518 |        12547 |        12547 |        28743 |        28743 |        28460 |        28460 |        62867 |        62867 |        62383 |        62383 |       156293 |       156293 |       154720 |       154720 |       344020 |       344020 |       340492 |       340492 |       737387 |       737387 |       731508 |       731508 |      1716629 |      1716629 |      1697779 |      1697779 |      3710549 |      3710549 |      3665408 |      3665408 |      8499701 |      8499701 |      8392037 |      8392037 |
dl1.replacements                              1780 |         1780 |         1763 |         1763 |         4788 |         4788 |         4843 |         4843 |        12262 |        12262 |        12291 |        12291 |        28487 |        28487 |        28204 |        28204 |        62611 |        62611 |        62127 |        62127 |       156037 |       156037 |       154464 |       154464 |       343764 |       343764 |       340236 |       340236 |       737131 |       737131 |       731252 |       731252 |      1716373 |      1716373 |      1697523 |      1697523 |      3710293 |      3710293 |      3665152 |      3665152 |      8499445 |      8499445 |      8391781 |      8391781 |
dl1.writebacks                                1753 |         1753 |         1753 |         1753 |         4597 |         4597 |         4695 |         4695 |        11391 |        11391 |        11537 |        11537 |        26473 |        26473 |        26445 |        26445 |        60218 |        60218 |        60367 |        60367 |       143522 |       143522 |       143538 |       143538 |       319461 |       319461 |       319582 |       319582 |       695156 |       695156 |       696873 |       696873 |      1555840 |      1555840 |      1554262 |      1554262 |      3387342 |      3387342 |      3381668 |      3381668 |      7452538 |      7452538 |      7432617 |      7432617 |
dl1.invalidations                                0 |            0 |            0 |            0 |            0 |            0 |            0 |            0 |            0 |            0 |            0 |            0 |            0 |            0 |            0 |            0 |            0 |            0 |            0 |            0 |            0 |            0 |            0 |            0 |            0 |            0 |            0 |            0 |            0 |            0 |            0 |            0 |            0 |            0 |            0 |            0 |            0 |            0 |            0 |            0 |            0 |            0 |            0 |            0 |
dl1.miss_rate                               0.0147 |       0.0147 |       0.0146 |       0.0146 |       0.0173 |       0.0173 |       0.0175 |       0.0175 |       0.0203 |       0.0203 |       0.0203 |       0.0203 |       0.0221 |       0.0221 |       0.0219 |       0.0219 |       0.0232 |       0.0232 |       0.0231 |       0.0231 |       0.0272 |       0.0272 |       0.0269 |       0.0269 |       0.0286 |       0.0286 |       0.0283 |       0.0283 |       0.0295 |       0.0295 |       0.0292 |       0.0292 |       0.0325 |       0.0325 |       0.0322 |       0.0322 |       0.0338 |       0.0338 |       0.0334 |       0.0334 |       0.0367 |       0.0367 |       0.0363 |       0.0363 |
dl1.repl_rate                               0.0128 |       0.0128 |       0.0127 |       0.0127 |       0.0165 |       0.0165 |       0.0167 |       0.0167 |       0.0198 |       0.0198 |       0.0199 |       0.0199 |       0.0219 |       0.0219 |       0.0217 |       0.0217 |       0.0231 |       0.0231 |       0.0230 |       0.0230 |       0.0271 |       0.0271 |       0.0269 |       0.0269 |       0.0286 |       0.0286 |       0.0283 |       0.0283 |       0.0294 |       0.0294 |       0.0292 |       0.0292 |       0.0325 |       0.0325 |       0.0322 |       0.0322 |       0.0338 |       0.0338 |       0.0334 |       0.0334 |       0.0367 |       0.0367 |       0.0363 |       0.0363 |
dl1.wb_rate                                 0.0126 |       0.0126 |       0.0126 |       0.0126 |       0.0158 |       0.0158 |       0.0161 |       0.0161 |       0.0184 |       0.0184 |       0.0187 |       0.0187 |       0.0203 |       0.0203 |       0.0203 |       0.0203 |       0.0223 |       0.0223 |       0.0223 |       0.0223 |       0.0250 |       0.0250 |       0.0250 |       0.0250 |       0.0266 |       0.0266 |       0.0266 |       0.0266 |       0.0278 |       0.0278 |       0.0278 |       0.0278 |       0.0295 |       0.0295 |       0.0294 |       0.0294 |       0.0309 |       0.0309 |       0.0308 |       0.0308 |       0.0322 |       0.0322 |       0.0321 |       0.0321 |
dl1.inv_rate                                0.0000 |       0.0000 |       0.0000 |       0.0000 |       0.0000 |       0.0000 |       0.0000 |       0.0000 |       0.0000 |       0.0000 |       0.0000 |       0.0000 |       0.0000 |       0.0000 |       0.0000 |       0.0000 |       0.0000 |       0.0000 |       0.0000 |       0.0000 |       0.0000 |       0.0000 |       0.0000 |       0.0000 |       0.0000 |       0.0000 |       0.0000 |       0.0000 |       0.0000 |       0.0000 |       0.0000 |       0.0000 |       0.0000 |       0.0000 |       0.0000 |       0.0000 |       0.0000 |       0.0000 |       0.0000 |       0.0000 |       0.0000 |       0.0000 |       0.0000 |       0.0000 |
dl2.accesses                                  4246 |         4246 |         4200 |         4200 |        10096 |        10096 |        10219 |        10219 |        24381 |        24381 |        24520 |        24520 |        55674 |        55674 |        55336 |        55336 |       123545 |       123545 |       123183 |       123183 |       300275 |       300275 |       298691 |       298691 |       663941 |       663941 |       660507 |       660507 |      1432996 |      1432996 |      1428806 |      1428806 |      3272928 |      3272928 |      3252473 |      3252473 |      7098351 |      7098351 |      7047509 |      7047509 |     15952696 |     15952696 |     15825084 |     15825084 |
dl2.hits                                      2870 |         2870 |         2839 |         2839 |         8212 |         8212 |         8348 |         8348 |        21469 |        21469 |        21625 |        21625 |        50722 |        50722 |        50396 |        50396 |       114494 |       114494 |       114144 |       114144 |       283032 |       283032 |       281460 |       281460 |       630314 |       630314 |       626892 |       626892 |      1366608 |      1365918 |      1362430 |      1313438 |      3140268 |      2938077 |      3004157 |      2886943 |      6405399 |      5999975 |      6272091 |      5857098 |     13670667 |     12824695 |     13332119 |     12511547 |
dl2.misses                                    1376 |         1376 |         1361 |         1361 |         1884 |         1884 |         1871 |         1871 |         2912 |         2912 |         2895 |         2895 |         4952 |         4952 |         4940 |         4940 |         9051 |         9051 |         9039 |         9039 |        17243 |        17243 |        17231 |        17231 |        33627 |        33627 |        33615 |        33615 |        66388 |        67078 |        66376 |       115368 |       132660 |       334851 |       248316 |       365530 |       692952 |      1098376 |       775418 |      1190411 |      2282029 |      3128001 |      2492965 |      3313537 |
dl2.replacements                               147 |          147 |            0 |            0 |          146 |          146 |            0 |            0 |          150 |          150 |            0 |            0 |          145 |          145 |            0 |            0 |          145 |          145 |            0 |            0 |          145 |          145 |            0 |            0 |          145 |          145 |            0 |            0 |          145 |         1542 |            0 |        49832 |         1588 |       269315 |       117244 |       299994 |       561880 |      1032840 |       644346 |      1124875 |      2150957 |      3062465 |      2361893 |      3248001 |
dl2.writebacks                                  82 |           82 |            0 |            0 |           83 |           83 |            0 |            0 |           85 |           85 |            0 |            0 |           84 |           84 |            0 |            0 |           84 |           84 |            0 |            0 |           84 |           84 |            0 |            0 |           84 |           84 |            0 |            0 |           84 |         1292 |            0 |        49608 |         1326 |       267808 |       117020 |       297110 |       555645 |       987174 |       619564 |      1070910 |      1943979 |      2682458 |      2116246 |      2838637 |
dl2.invalidations                                0 |            0 |            0 |            0 |            0 |            0 |            0 |            0 |            0 |            0 |            0 |            0 |            0 |            0 |            0 |            0 |            0 |            0 |            0 |            0 |            0 |            0 |            0 |            0 |            0 |            0 |            0 |            0 |            0 |            0 |            0 |            0 |            0 |            0 |            0 |            0 |            0 |            0 |            0 |            0 |            0 |            0 |            0 |            0 |
dl2.miss_rate                               0.3241 |       0.3241 |       0.3240 |       0.3240 |       0.1866 |       0.1866 |       0.1831 |       0.1831 |       0.1194 |       0.1194 |       0.1181 |       0.1181 |       0.0889 |       0.0889 |       0.0893 |       0.0893 |       0.0733 |       0.0733 |       0.0734 |       0.0734 |       0.0574 |       0.0574 |       0.0577 |       0.0577 |       0.0506 |       0.0506 |       0.0509 |       0.0509 |       0.0463 |       0.0468 |       0.0465 |       0.0807 |       0.0405 |       0.1023 |       0.0763 |       0.1124 |       0.0976 |       0.1547 |       0.1100 |       0.1689 |       0.1430 |       0.1961 |       0.1575 |       0.2094 |
dl2.repl_rate                               0.0346 |       0.0346 |       0.0000 |       0.0000 |       0.0145 |       0.0145 |       0.0000 |       0.0000 |       0.0062 |       0.0062 |       0.0000 |       0.0000 |       0.0026 |       0.0026 |       0.0000 |       0.0000 |       0.0012 |       0.0012 |       0.0000 |       0.0000 |       0.0005 |       0.0005 |       0.0000 |       0.0000 |       0.0002 |       0.0002 |       0.0000 |       0.0000 |       0.0001 |       0.0011 |       0.0000 |       0.0349 |       0.0005 |       0.0823 |       0.0360 |       0.0922 |       0.0792 |       0.1455 |       0.0914 |       0.1596 |       0.1348 |       0.1920 |       0.1492 |       0.2052 |
dl2.wb_rate                                 0.0193 |       0.0193 |       0.0000 |       0.0000 |       0.0082 |       0.0082 |       0.0000 |       0.0000 |       0.0035 |       0.0035 |       0.0000 |       0.0000 |       0.0015 |       0.0015 |       0.0000 |       0.0000 |       0.0007 |       0.0007 |       0.0000 |       0.0000 |       0.0003 |       0.0003 |       0.0000 |       0.0000 |       0.0001 |       0.0001 |       0.0000 |       0.0000 |       0.0001 |       0.0009 |       0.0000 |       0.0347 |       0.0004 |       0.0818 |       0.0360 |       0.0913 |       0.0783 |       0.1391 |       0.0879 |       0.1520 |       0.1219 |       0.1682 |       0.1337 |       0.1794 |
dl2.inv_rate                                0.0000 |       0.0000 |       0.0000 |       0.0000 |       0.0000 |       0.0000 |       0.0000 |       0.0000 |       0.0000 |       0.0000 |       0.0000 |       0.0000 |       0.0000 |       0.0000 |       0.0000 |       0.0000 |       0.0000 |       0.0000 |       0.0000 |       0.0000 |       0.0000 |       0.0000 |       0.0000 |       0.0000 |       0.0000 |       0.0000 |       0.0000 |       0.0000 |       0.0000 |       0.0000 |       0.0000 |       0.0000 |       0.0000 |       0.0000 |       0.0000 |       0.0000 |       0.0000 |       0.0000 |       0.0000 |       0.0000 |       0.0000 |       0.0000 |       0.0000 |       0.0000 |
itlb.accesses                               460290 |       460290 |       460290 |       460290 |       989704 |       989704 |       989704 |       989704 |      2154847 |      2154847 |      2154847 |      2154847 |      4599872 |      4599872 |      4599872 |      4599872 |      9570153 |      9570153 |      9570153 |      9570153 |     20821196 |     20821196 |     20821196 |     20821196 |     43772702 |     43772702 |     43772702 |     43772702 |     91463006 |     91463006 |     91463006 |     91463006 |    196333761 |    196333761 |    196333761 |    196333761 |    410136904 |    410136904 |    410136904 |    410136904 |    878273346 |    878273346 |    878273346 |    878273346 |
itlb.hits                                   460279 |       460279 |       460279 |       460279 |       989693 |       989693 |       989693 |       989693 |      2154836 |      2154836 |      2154836 |      2154836 |      4599862 |      4599862 |      4599862 |      4599862 |      9570143 |      9570143 |      9570143 |      9570143 |     20821186 |     20821186 |     20821186 |     20821186 |     43772692 |     43772692 |     43772692 |     43772692 |     91462996 |     91462996 |     91462996 |     91462996 |    196333751 |    196333751 |    196333751 |    196333751 |    410136894 |    410136894 |    410136894 |    410136894 |    878273336 |    878273336 |    878273336 |    878273336 |
itlb.misses                                     11 |           11 |           11 |           11 |           11 |           11 |           11 |           11 |           11 |           11 |           11 |           11 |           10 |           10 |           10 |           10 |           10 |           10 |           10 |           10 |           10 |           10 |           10 |           10 |           10 |           10 |           10 |           10 |           10 |           10 |           10 |           10 |           10 |           10 |           10 |           10 |           10 |           10 |           10 |           10 |           10 |           10 |           10 |           10 |
itlb.replacements                                0 |            0 |            0 |            0 |            0 |            0 |            0 |            0 |            0 |            0 |            0 |            0 |            0 |            0 |            0 |            0 |            0 |            0 |            0 |            0 |            0 |            0 |            0 |            0 |            0 |            0 |            0 |            0 |            0 |            0 |            0 |            0 |            0 |            0 |            0 |            0 |            0 |            0 |            0 |            0 |            0 |            0 |            0 |            0 |
itlb.writebacks                                  0 |            0 |            0 |            0 |            0 |            0 |            0 |            0 |            0 |            0 |            0 |            0 |            0 |            0 |            0 |            0 |            0 |            0 |            0 |            0 |            0 |            0 |            0 |            0 |            0 |            0 |            0 |            0 |            0 |            0 |            0 |            0 |            0 |            0 |            0 |            0 |            0 |            0 |            0 |            0 |            0 |            0 |            0 |            0 |
itlb.invalidations                               0 |            0 |            0 |            0 |            0 |            0 |            0 |            0 |            0 |            0 |            0 |            0 |            0 |            0 |            0 |            0 |            0 |            0 |            0 |            0 |            0 |            0 |            0 |            0 |            0 |            0 |            0 |            0 |            0 |            0 |            0 |            0 |            0 |            0 |            0 |            0 |            0 |            0 |            0 |            0 |            0 |            0 |            0 |            0 |
itlb.miss_rate                              0.0000 |       0.0000 |       0.0000 |       0.0000 |       0.0000 |       0.0000 |       0.0000 |       0.0000 |       0.0000 |       0.0000 |       0.0000 |       0.0000 |       0.0000 |       0.0000 |       0.0000 |       0.0000 |       0.0000 |       0.0000 |       0.0000 |       0.0000 |       0.0000 |       0.0000 |       0.0000 |       0.0000 |       0.0000 |       0.0000 |       0.0000 |       0.0000 |       0.0000 |       0.0000 |       0.0000 |       0.0000 |       0.0000 |       0.0000 |       0.0000 |       0.0000 |       0.0000 |       0.0000 |       0.0000 |       0.0000 |       0.0000 |       0.0000 |       0.0000 |       0.0000 |
itlb.repl_rate                              0.0000 |       0.0000 |       0.0000 |       0.0000 |       0.0000 |       0.0000 |       0.0000 |       0.0000 |       0.0000 |       0.0000 |       0.0000 |       0.0000 |       0.0000 |       0.0000 |       0.0000 |       0.0000 |       0.0000 |       0.0000 |       0.0000 |       0.0000 |       0.0000 |       0.0000 |       0.0000 |       0.0000 |       0.0000 |       0.0000 |       0.0000 |       0.0000 |       0.0000 |       0.0000 |       0.0000 |       0.0000 |       0.0000 |       0.0000 |       0.0000 |       0.0000 |       0.0000 |       0.0000 |       0.0000 |       0.0000 |       0.0000 |       0.0000 |       0.0000 |       0.0000 |
itlb.wb_rate                                0.0000 |       0.0000 |       0.0000 |       0.0000 |       0.0000 |       0.0000 |       0.0000 |       0.0000 |       0.0000 |       0.0000 |       0.0000 |       0.0000 |       0.0000 |       0.0000 |       0.0000 |       0.0000 |       0.0000 |       0.0000 |       0.0000 |       0.0000 |       0.0000 |       0.0000 |       0.0000 |       0.0000 |       0.0000 |       0.0000 |       0.0000 |       0.0000 |       0.0000 |       0.0000 |       0.0000 |       0.0000 |       0.0000 |       0.0000 |       0.0000 |       0.0000 |       0.0000 |       0.0000 |       0.0000 |       0.0000 |       0.0000 |       0.0000 |       0.0000 |       0.0000 |
itlb.inv_rate                               0.0000 |       0.0000 |       0.0000 |       0.0000 |       0.0000 |       0.0000 |       0.0000 |       0.0000 |       0.0000 |       0.0000 |       0.0000 |       0.0000 |       0.0000 |       0.0000 |       0.0000 |       0.0000 |       0.0000 |       0.0000 |       0.0000 |       0.0000 |       0.0000 |       0.0000 |       0.0000 |       0.0000 |       0.0000 |       0.0000 |       0.0000 |       0.0000 |       0.0000 |       0.0000 |       0.0000 |       0.0000 |       0.0000 |       0.0000 |       0.0000 |       0.0000 |       0.0000 |       0.0000 |       0.0000 |       0.0000 |       0.0000 |       0.0000 |       0.0000 |       0.0000 |
dtlb.accesses                               138722 |       138722 |       138722 |       138722 |       290844 |       290844 |       290844 |       290844 |       617848 |       617848 |       617848 |       617848 |      1301626 |      1301626 |      1301626 |      1301626 |      2704916 |      2704916 |      2704916 |      2704916 |      5752146 |      5752146 |      5752146 |      5752146 |     12023160 |     12023160 |     12023160 |     12023160 |     25033742 |     25033742 |     25033742 |     25033742 |     52795925 |     52795925 |     52795925 |     52795925 |    109791808 |    109791808 |    109791808 |    109791808 |    231450051 |    231450051 |    231450051 |    231450051 |
dtlb.hits                                   138710 |       138710 |       138710 |       138710 |       290828 |       290828 |       290828 |       290828 |       617824 |       617824 |       617824 |       617824 |      1301586 |      1301586 |      1301586 |      1301586 |      2704844 |      2704844 |      2704844 |      2704844 |      5751982 |      5751982 |      5751982 |      5751982 |     12022334 |     12022334 |     12022334 |     12022334 |     25031646 |     25031646 |     25031646 |     25031646 |     52789751 |     52789751 |     52789751 |     52789751 |    109777703 |    109777703 |    109777703 |    109777703 |    231413763 |    231413763 |    231413763 |    231413763 |
dtlb.misses                                     12 |           12 |           12 |           12 |           16 |           16 |           16 |           16 |           24 |           24 |           24 |           24 |           40 |           40 |           40 |           40 |           72 |           72 |           72 |           72 |          164 |          164 |          164 |          164 |          826 |          826 |          826 |          826 |         2096 |         2096 |         2096 |         2096 |         6174 |         6174 |         6174 |         6174 |        14105 |        14105 |        14105 |        14105 |        36288 |        36288 |        36288 |        36288 |
dtlb.replacements                                0 |            0 |            0 |            0 |            0 |            0 |            0 |            0 |            0 |            0 |            0 |            0 |            0 |            0 |            0 |            0 |            0 |            0 |            0 |            0 |           36 |           36 |           36 |           36 |          698 |          698 |          698 |          698 |         1968 |         1968 |         1968 |         1968 |         6046 |         6046 |         6046 |         6046 |        13977 |        13977 |        13977 |        13977 |        36160 |        36160 |        36160 |        36160 |
dtlb.writebacks                                  0 |            0 |            0 |            0 |            0 |            0 |            0 |            0 |            0 |            0 |            0 |            0 |            0 |            0 |            0 |            0 |            0 |            0 |            0 |            0 |           34 |           34 |           34 |           34 |          696 |          696 |          696 |          696 |         1966 |         1966 |         1966 |         1966 |         6043 |         6043 |         6043 |         6043 |        13974 |        13974 |        13974 |        13974 |        36158 |        36158 |        36158 |        36158 |
dtlb.invalidations                               0 |            0 |            0 |            0 |            0 |            0 |            0 |            0 |            0 |            0 |            0 |            0 |            0 |            0 |            0 |            0 |            0 |            0 |            0 |            0 |            0 |            0 |            0 |            0 |            0 |            0 |            0 |            0 |            0 |            0 |            0 |            0 |            0 |            0 |            0 |            0 |            0 |            0 |            0 |            0 |            0 |            0 |            0 |            0 |
dtlb.miss_rate                              0.0001 |       0.0001 |       0.0001 |       0.0001 |       0.0001 |       0.0001 |       0.0001 |       0.0001 |       0.0000 |       0.0000 |       0.0000 |       0.0000 |       0.0000 |       0.0000 |       0.0000 |       0.0000 |       0.0000 |       0.0000 |       0.0000 |       0.0000 |       0.0000 |       0.0000 |       0.0000 |       0.0000 |       0.0001 |       0.0001 |       0.0001 |       0.0001 |       0.0001 |       0.0001 |       0.0001 |       0.0001 |       0.0001 |       0.0001 |       0.0001 |       0.0001 |       0.0001 |       0.0001 |       0.0001 |       0.0001 |       0.0002 |       0.0002 |       0.0002 |       0.0002 |
dtlb.repl_rate                              0.0000 |       0.0000 |       0.0000 |       0.0000 |       0.0000 |       0.0000 |       0.0000 |       0.0000 |       0.0000 |       0.0000 |       0.0000 |       0.0000 |       0.0000 |       0.0000 |       0.0000 |       0.0000 |       0.0000 |       0.0000 |       0.0000 |       0.0000 |       0.0000 |       0.0000 |       0.0000 |       0.0000 |       0.0001 |       0.0001 |       0.0001 |       0.0001 |       0.0001 |       0.0001 |       0.0001 |       0.0001 |       0.0001 |       0.0001 |       0.0001 |       0.0001 |       0.0001 |       0.0001 |       0.0001 |       0.0001 |       0.0002 |       0.0002 |       0.0002 |       0.0002 |
dtlb.wb_rate                                0.0000 |       0.0000 |       0.0000 |       0.0000 |       0.0000 |       0.0000 |       0.0000 |       0.0000 |       0.0000 |       0.0000 |       0.0000 |       0.0000 |       0.0000 |       0.0000 |       0.0000 |       0.0000 |       0.0000 |       0.0000 |       0.0000 |       0.0000 |       0.0000 |       0.0000 |       0.0000 |       0.0000 |       0.0001 |       0.0001 |       0.0001 |       0.0001 |       0.0001 |       0.0001 |       0.0001 |       0.0001 |       0.0001 |       0.0001 |       0.0001 |       0.0001 |       0.0001 |       0.0001 |       0.0001 |       0.0001 |       0.0002 |       0.0002 |       0.0002 |       0.0002 |
dtlb.inv_rate                               0.0000 |       0.0000 |       0.0000 |       0.0000 |       0.0000 |       0.0000 |       0.0000 |       0.0000 |       0.0000 |       0.0000 |       0.0000 |       0.0000 |       0.0000 |       0.0000 |       0.0000 |       0.0000 |       0.0000 |       0.0000 |       0.0000 |       0.0000 |       0.0000 |       0.0000 |       0.0000 |       0.0000 |       0.0000 |       0.0000 |       0.0000 |       0.0000 |       0.0000 |       0.0000 |       0.0000 |       0.0000 |       0.0000 |       0.0000 |       0.0000 |       0.0000 |       0.0000 |       0.0000 |       0.0000 |       0.0000 |       0.0000 |       0.0000 |       0.0000 |       0.0000 |
ld_text_base                            0x00400000 |   0x00400000 |   0x00400000 |   0x00400000 |   0x00400000 |   0x00400000 |   0x00400000 |   0x00400000 |   0x00400000 |   0x00400000 |   0x00400000 |   0x00400000 |   0x00400000 |   0x00400000 |   0x00400000 |   0x00400000 |   0x00400000 |   0x00400000 |   0x00400000 |   0x00400000 |   0x00400000 |   0x00400000 |   0x00400000 |   0x00400000 |   0x00400000 |   0x00400000 |   0x00400000 |   0x00400000 |   0x00400000 |   0x00400000 |   0x00400000 |   0x00400000 |   0x00400000 |   0x00400000 |   0x00400000 |   0x00400000 |   0x00400000 |   0x00400000 |   0x00400000 |   0x00400000 |   0x00400000 |   0x00400000 |   0x00400000 |   0x00400000 |
ld_text_size                                 73104 |        73104 |        73104 |        73104 |        73136 |        73136 |        73136 |        73136 |        73152 |        73152 |        73152 |        73152 |        73168 |        73168 |        73168 |        73168 |        73168 |        73168 |        73168 |        73168 |        73168 |        73168 |        73168 |        73168 |        73168 |        73168 |        73168 |        73168 |        73168 |        73168 |        73168 |        73168 |        73168 |        73168 |        73168 |        73168 |        73168 |        73168 |        73168 |        73168 |        73168 |        73168 |        73168 |        73168 |
ld_data_base                            0x10000000 |   0x10000000 |   0x10000000 |   0x10000000 |   0x10000000 |   0x10000000 |   0x10000000 |   0x10000000 |   0x10000000 |   0x10000000 |   0x10000000 |   0x10000000 |   0x10000000 |   0x10000000 |   0x10000000 |   0x10000000 |   0x10000000 |   0x10000000 |   0x10000000 |   0x10000000 |   0x10000000 |   0x10000000 |   0x10000000 |   0x10000000 |   0x10000000 |   0x10000000 |   0x10000000 |   0x10000000 |   0x10000000 |   0x10000000 |   0x10000000 |   0x10000000 |   0x10000000 |   0x10000000 |   0x10000000 |   0x10000000 |   0x10000000 |   0x10000000 |   0x10000000 |   0x10000000 |   0x10000000 |   0x10000000 |   0x10000000 |   0x10000000 |
ld_data_size                                  8192 |         8192 |         8192 |         8192 |         8192 |         8192 |         8192 |         8192 |         8192 |         8192 |         8192 |         8192 |         8192 |         8192 |         8192 |         8192 |         8192 |         8192 |         8192 |         8192 |         8192 |         8192 |         8192 |         8192 |         8192 |         8192 |         8192 |         8192 |         8192 |         8192 |         8192 |         8192 |         8192 |         8192 |         8192 |         8192 |         8192 |         8192 |         8192 |         8192 |         8192 |         8192 |         8192 |         8192 |
ld_stack_base                           0x7fffc000 |   0x7fffc000 |   0x7fffc000 |   0x7fffc000 |   0x7fffc000 |   0x7fffc000 |   0x7fffc000 |   0x7fffc000 |   0x7fffc000 |   0x7fffc000 |   0x7fffc000 |   0x7fffc000 |   0x7fffc000 |   0x7fffc000 |   0x7fffc000 |   0x7fffc000 |   0x7fffc000 |   0x7fffc000 |   0x7fffc000 |   0x7fffc000 |   0x7fffc000 |   0x7fffc000 |   0x7fffc000 |   0x7fffc000 |   0x7fffc000 |   0x7fffc000 |   0x7fffc000 |   0x7fffc000 |   0x7fffc000 |   0x7fffc000 |   0x7fffc000 |   0x7fffc000 |   0x7fffc000 |   0x7fffc000 |   0x7fffc000 |   0x7fffc000 |   0x7fffc000 |   0x7fffc000 |   0x7fffc000 |   0x7fffc000 |   0x7fffc000 |   0x7fffc000 |   0x7fffc000 |   0x7fffc000 |
ld_stack_size                                16384 |        16384 |        16384 |        16384 |        16384 |        16384 |        16384 |        16384 |        16384 |        16384 |        16384 |        16384 |        16384 |        16384 |        16384 |        16384 |        16384 |        16384 |        16384 |        16384 |        16384 |        16384 |        16384 |        16384 |        16384 |        16384 |        16384 |        16384 |        16384 |        16384 |        16384 |        16384 |        16384 |        16384 |        16384 |        16384 |        16384 |        16384 |        16384 |        16384 |        16384 |        16384 |        16384 |        16384 |
ld_prog_entry                           0x00400140 |   0x00400140 |   0x00400140 |   0x00400140 |   0x00400140 |   0x00400140 |   0x00400140 |   0x00400140 |   0x00400140 |   0x00400140 |   0x00400140 |   0x00400140 |   0x00400140 |   0x00400140 |   0x00400140 |   0x00400140 |   0x00400140 |   0x00400140 |   0x00400140 |   0x00400140 |   0x00400140 |   0x00400140 |   0x00400140 |   0x00400140 |   0x00400140 |   0x00400140 |   0x00400140 |   0x00400140 |   0x00400140 |   0x00400140 |   0x00400140 |   0x00400140 |   0x00400140 |   0x00400140 |   0x00400140 |   0x00400140 |   0x00400140 |   0x00400140 |   0x00400140 |   0x00400140 |   0x00400140 |   0x00400140 |   0x00400140 |   0x00400140 |
ld_environ_base                         0x7fff8000 |   0x7fff8000 |   0x7fff8000 |   0x7fff8000 |   0x7fff8000 |   0x7fff8000 |   0x7fff8000 |   0x7fff8000 |   0x7fff8000 |   0x7fff8000 |   0x7fff8000 |   0x7fff8000 |   0x7fff8000 |   0x7fff8000 |   0x7fff8000 |   0x7fff8000 |   0x7fff8000 |   0x7fff8000 |   0x7fff8000 |   0x7fff8000 |   0x7fff8000 |   0x7fff8000 |   0x7fff8000 |   0x7fff8000 |   0x7fff8000 |   0x7fff8000 |   0x7fff8000 |   0x7fff8000 |   0x7fff8000 |   0x7fff8000 |   0x7fff8000 |   0x7fff8000 |   0x7fff8000 |   0x7fff8000 |   0x7fff8000 |   0x7fff8000 |   0x7fff8000 |   0x7fff8000 |   0x7fff8000 |   0x7fff8000 |   0x7fff8000 |   0x7fff8000 |   0x7fff8000 |   0x7fff8000 |
ld_target_big_endian                             0 |            0 |            0 |            0 |            0 |            0 |            0 |            0 |            0 |            0 |            0 |            0 |            0 |            0 |            0 |            0 |            0 |            0 |            0 |            0 |            0 |            0 |            0 |            0 |            0 |            0 |            0 |            0 |            0 |            0 |            0 |            0 |            0 |            0 |            0 |            0 |            0 |            0 |            0 |            0 |            0 |            0 |            0 |            0 |
mem.page_count                                  30 |           30 |           30 |           30 |           34 |           34 |           34 |           34 |           42 |           42 |           42 |           42 |           58 |           58 |           58 |           58 |           90 |           90 |           90 |           90 |          154 |          154 |          154 |          154 |          282 |          282 |          282 |          282 |          538 |          538 |          538 |          538 |         1050 |         1050 |         1050 |         1050 |         2074 |         2074 |         2074 |         2074 |         4122 |         4122 |         4122 |         4122 |
mem.page_mem                                  120k |         120k |         120k |         120k |         136k |         136k |         136k |         136k |         168k |         168k |         168k |         168k |         232k |         232k |         232k |         232k |         360k |         360k |         360k |         360k |         616k |         616k |         616k |         616k |        1128k |        1128k |        1128k |        1128k |        2152k |        2152k |        2152k |        2152k |        4200k |        4200k |        4200k |        4200k |        8296k |        8296k |        8296k |        8296k |       16488k |       16488k |       16488k |       16488k |
mem.ptab_misses                                 30 |           30 |           30 |           30 |           34 |           34 |           34 |           34 |           42 |           42 |           42 |           42 |           58 |           58 |           58 |           58 |           90 |           90 |           90 |           90 |          154 |          154 |          154 |          154 |          282 |          282 |          282 |          282 |          538 |          538 |          538 |          538 |         1050 |         1050 |         1050 |         1050 |         2074 |         2074 |         2074 |         2074 |         4122 |         4122 |         4122 |         4122 |
mem.ptab_accesses                          2571842 |      2571842 |      2571842 |      2571842 |      4993934 |      4993934 |      4993934 |      4993934 |     10308610 |     10308610 |     10308610 |     10308610 |     21456362 |     21456362 |     21456362 |     21456362 |     44144066 |     44144066 |     44144066 |     44144066 |     95242698 |     95242698 |     95242698 |     95242698 |    199590750 |    199590750 |    199590750 |    199590750 |    416373130 |    416373130 |    416373130 |    416373130 |    891380516 |    891380516 |    891380516 |    891380516 |   1860584854 |   1860584854 |   1860584854 |   1860584854 |   3976447108 |   3976447108 |   3976447108 |   3976447108 |
mem.ptab_miss_rate                          0.0000 |       0.0000 |       0.0000 |       0.0000 |       0.0000 |       0.0000 |       0.0000 |       0.0000 |       0.0000 |       0.0000 |       0.0000 |       0.0000 |       0.0000 |       0.0000 |       0.0000 |       0.0000 |       0.0000 |       0.0000 |       0.0000 |       0.0000 |       0.0000 |       0.0000 |       0.0000 |       0.0000 |       0.0000 |       0.0000 |       0.0000 |       0.0000 |       0.0000 |       0.0000 |       0.0000 |       0.0000 |       0.0000 |       0.0000 |       0.0000 |       0.0000 |       0.0000 |       0.0000 |       0.0000 |       0.0000 |       0.0000 |       0.0000 |       0.0000 |       0.0000 |
-------------------------------------------------------------------------------------------------
sim-bpred                                     4096 |         4096 |         4096 |         4096 |         4096 |         4096 |         4096 |         8192 |         8192 |         8192 |         8192 |         8192 |         8192 |         8192 |        16384 |        16384 |        16384 |        16384 |        16384 |        16384 |        16384 |        32768 |        32768 |        32768 |        32768 |        32768 |        32768 |        32768 |        65536 |        65536 |        65536 |        65536 |        65536 |        65536 |        65536 |       131072 |       131072 |       131072 |       131072 |       131072 |       131072 |       131072 |       262144 |       262144 |       262144 |       262144 |       262144 |       262144 |       262144 |       524288 |       524288 |       524288 |       524288 |       524288 |       524288 |       524288 |      1048576 |      1048576 |      1048576 |      1048576 |      1048576 |      1048576 |      1048576 |      2097152 |      2097152 |      2097152 |      2097152 |      2097152 |      2097152 |      2097152 |      4194304 |      4194304 |      4194304 |      4194304 |      4194304 |      4194304 |      4194304 |
-bpred bimod -bpred:bimod 512
-bpred bimod -bpred:bimod 1024
-bpred bimod -bpred:bimod 2048
-bpred 2lev -bpred:2lev 1 512 10 1
-bpred 2lev -bpred:2lev 1 1024 10 1
-bpred 2lev -bpred:2lev 1 2048 10 1
-bpred 2lev -bpred:2lev 1 4096 10 1
-------------------------------------------------------------------------------------------------
sim_num_insn                                460290 |       460290 |       460290 |       460290 |       460290 |       460290 |       460290 |       989704 |       989704 |       989704 |       989704 |       989704 |       989704 |       989704 |      2154847 |      2154847 |      2154847 |      2154847 |      2154847 |      2154847 |      2154847 |      4599872 |      4599872 |      4599872 |      4599872 |      4599872 |      4599872 |      4599872 |      9570153 |      9570153 |      9570153 |      9570153 |      9570153 |      9570153 |      9570153 |     20821196 |     20821196 |     20821196 |     20821196 |     20821196 |     20821196 |     20821196 |     43772702 |     43772702 |     43772702 |     43772702 |     43772702 |     43772702 |     43772702 |     91463006 |     91463006 |     91463006 |     91463006 |     91463006 |     91463006 |     91463006 |    196333761 |    196333761 |    196333761 |    196333761 |    196333761 |    196333761 |    196333761 |    410136904 |    410136904 |    410136904 |    410136904 |    410136904 |    410136904 |    410136904 |    878273346 |    878273346 |    878273346 |    878273346 |    878273346 |    878273346 |    878273346 |
sim_num_refs                                122256 |       122256 |       122256 |       122256 |       122256 |       122256 |       122256 |       257994 |       257994 |       257994 |       257994 |       257994 |       257994 |       257994 |       552230 |       552230 |       552230 |       552230 |       552230 |       552230 |       552230 |      1170472 |      1170472 |      1170472 |      1170472 |      1170472 |      1170472 |      1170472 |      2442690 |      2442690 |      2442690 |      2442690 |      2442690 |      2442690 |      2442690 |      5227776 |      5227776 |      5227776 |      5227776 |      5227776 |      5227776 |      5227776 |     10974502 |     10974502 |     10974502 |     10974502 |     10974502 |     10974502 |     10974502 |     22936508 |     22936508 |     22936508 |     22936508 |     22936508 |     22936508 |     22936508 |     48601539 |     48601539 |     48601539 |     48601539 |     48601539 |     48601539 |     48601539 |    101403118 |    101403118 |    101403118 |    101403118 |    101403118 |    101403118 |    101403118 |    214672753 |    214672753 |    214672753 |    214672753 |    214672753 |    214672753 |    214672753 |
sim_elapsed_time                                 1 |            1 |            1 |            1 |            1 |            1 |            1 |            1 |            1 |            1 |            1 |            1 |            1 |            1 |            1 |            1 |            1 |            1 |            1 |            1 |            1 |            1 |            1 |            1 |            1 |            1 |            1 |            1 |            1 |            1 |            1 |            1 |            2 |            1 |            1 |            2 |            2 |            3 |            2 |            3 |            2 |            2 |            5 |            5 |            5 |            5 |            5 |            5 |            5 |           11 |           10 |           10 |           11 |           10 |           11 |           11 |           22 |           22 |           22 |           23 |           22 |           23 |           22 |           46 |           46 |           47 |           47 |           47 |           47 |           47 |           99 |           99 |           99 |          101 |          100 |          101 |          101 |
sim_inst_rate                          460290.0000 |  460290.0000 |  460290.0000 |  460290.0000 |  460290.0000 |  460290.0000 |  460290.0000 |  989704.0000 |  989704.0000 |  989704.0000 |  989704.0000 |  989704.0000 |  989704.0000 |  989704.0000 | 2154847.0000 | 2154847.0000 | 2154847.0000 | 2154847.0000 | 2154847.0000 | 2154847.0000 | 2154847.0000 | 4599872.0000 | 4599872.0000 | 4599872.0000 | 4599872.0000 | 4599872.0000 | 4599872.0000 | 4599872.0000 | 9570153.0000 | 9570153.0000 | 9570153.0000 | 9570153.0000 | 4785076.5000 | 9570153.0000 | 9570153.0000 |10410598.0000 |10410598.0000 | 6940398.6667 |10410598.0000 | 6940398.6667 |10410598.0000 |10410598.0000 | 8754540.4000 | 8754540.4000 | 8754540.4000 | 8754540.4000 | 8754540.4000 | 8754540.4000 | 8754540.4000 | 8314818.7273 | 9146300.6000 | 9146300.6000 | 8314818.7273 | 9146300.6000 | 8314818.7273 | 8314818.7273 | 8924261.8636 | 8924261.8636 | 8924261.8636 | 8536250.4783 | 8924261.8636 | 8536250.4783 | 8924261.8636 | 8916019.6522 | 8916019.6522 | 8726317.1064 | 8726317.1064 | 8726317.1064 | 8726317.1064 | 8726317.1064 | 8871447.9394 | 8871447.9394 | 8871447.9394 | 8695775.7030 | 8782733.4600 | 8695775.7030 | 8695775.7030 |
sim_num_branches                             75425 |        75425 |        75425 |        75425 |        75425 |        75425 |        75425 |       163613 |       163613 |       163613 |       163613 |       163613 |       163613 |       163613 |       358746 |       358746 |       358746 |       358746 |       358746 |       358746 |       358746 |       770143 |       770143 |       770143 |       770143 |       770143 |       770143 |       770143 |      1612717 |      1612717 |      1612717 |      1612717 |      1612717 |      1612717 |      1612717 |      3517396 |      3517396 |      3517396 |      3517396 |      3517396 |      3517396 |      3517396 |      7425006 |      7425006 |      7425006 |      7425006 |      7425006 |      7425006 |      7425006 |     15569342 |     15569342 |     15569342 |     15569342 |     15569342 |     15569342 |     15569342 |     33442894 |     33442894 |     33442894 |     33442894 |     33442894 |     33442894 |     33442894 |     70051239 |     70051239 |     70051239 |     70051239 |     70051239 |     70051239 |     70051239 |    150281437 |    150281437 |    150281437 |    150281437 |    150281437 |    150281437 |    150281437 |
sim_IPB                                     6.1026 |       6.1026 |       6.1026 |       6.1026 |       6.1026 |       6.1026 |       6.1026 |       6.0491 |       6.0491 |       6.0491 |       6.0491 |       6.0491 |       6.0491 |       6.0491 |       6.0066 |       6.0066 |       6.0066 |       6.0066 |       6.0066 |       6.0066 |       6.0066 |       5.9728 |       5.9728 |       5.9728 |       5.9728 |       5.9728 |       5.9728 |       5.9728 |       5.9342 |       5.9342 |       5.9342 |       5.9342 |       5.9342 |       5.9342 |       5.9342 |       5.9195 |       5.9195 |       5.9195 |       5.9195 |       5.9195 |       5.9195 |       5.9195 |       5.8953 |       5.8953 |       5.8953 |       5.8953 |       5.8953 |       5.8953 |       5.8953 |       5.8746 |       5.8746 |       5.8746 |       5.8746 |       5.8746 |       5.8746 |       5.8746 |       5.8707 |       5.8707 |       5.8707 |       5.8707 |       5.8707 |       5.8707 |       5.8707 |       5.8548 |       5.8548 |       5.8548 |       5.8548 |       5.8548 |       5.8548 |       5.8548 |       5.8442 |       5.8442 |       5.8442 |       5.8442 |       5.8442 |       5.8442 |       5.8442 |
bpred_bimod.lookups                          75425 |        75425 |        75425 |xxxxxxxxxxxxx |xxxxxxxxxxxxx |xxxxxxxxxxxxx |xxxxxxxxxxxxx |       163613 |       163613 |       163613 |xxxxxxxxxxxxx |xxxxxxxxxxxxx |xxxxxxxxxxxxx |xxxxxxxxxxxxx |       358746 |       358746 |       358746 |xxxxxxxxxxxxx |xxxxxxxxxxxxx |xxxxxxxxxxxxx |xxxxxxxxxxxxx |       770143 |       770143 |       770143 |xxxxxxxxxxxxx |xxxxxxxxxxxxx |xxxxxxxxxxxxx |xxxxxxxxxxxxx |      1612717 |      1612717 |      1612717 |xxxxxxxxxxxxx |xxxxxxxxxxxxx |xxxxxxxxxxxxx |xxxxxxxxxxxxx |      3517396 |      3517396 |      3517396 |xxxxxxxxxxxxx |xxxxxxxxxxxxx |xxxxxxxxxxxxx |xxxxxxxxxxxxx |      7425006 |      7425006 |      7425006 |xxxxxxxxxxxxx |xxxxxxxxxxxxx |xxxxxxxxxxxxx |xxxxxxxxxxxxx |     15569342 |     15569342 |     15569342 |xxxxxxxxxxxxx |xxxxxxxxxxxxx |xxxxxxxxxxxxx |xxxxxxxxxxxxx |     33442894 |     33442894 |     33442894 |xxxxxxxxxxxxx |xxxxxxxxxxxxx |xxxxxxxxxxxxx |xxxxxxxxxxxxx |     70051239 |     70051239 |     70051239 |xxxxxxxxxxxxx |xxxxxxxxxxxxx |xxxxxxxxxxxxx |xxxxxxxxxxxxx |    150281437 |    150281437 |    150281437 |
bpred_bimod.updates                          75425 |        75425 |        75425 |xxxxxxxxxxxxx |xxxxxxxxxxxxx |xxxxxxxxxxxxx |xxxxxxxxxxxxx |       163613 |       163613 |       163613 |xxxxxxxxxxxxx |xxxxxxxxxxxxx |xxxxxxxxxxxxx |xxxxxxxxxxxxx |       358746 |       358746 |       358746 |xxxxxxxxxxxxx |xxxxxxxxxxxxx |xxxxxxxxxxxxx |xxxxxxxxxxxxx |       770143 |       770143 |       770143 |xxxxxxxxxxxxx |xxxxxxxxxxxxx |xxxxxxxxxxxxx |xxxxxxxxxxxxx |      1612717 |      1612717 |      1612717 |xxxxxxxxxxxxx |xxxxxxxxxxxxx |xxxxxxxxxxxxx |xxxxxxxxxxxxx |      3517396 |      3517396 |      3517396 |xxxxxxxxxxxxx |xxxxxxxxxxxxx |xxxxxxxxxxxxx |xxxxxxxxxxxxx |      7425006 |      7425006 |      7425006 |xxxxxxxxxxxxx |xxxxxxxxxxxxx |xxxxxxxxxxxxx |xxxxxxxxxxxxx |     15569342 |     15569342 |     15569342 |xxxxxxxxxxxxx |xxxxxxxxxxxxx |xxxxxxxxxxxxx |xxxxxxxxxxxxx |     33442894 |     33442894 |     33442894 |xxxxxxxxxxxxx |xxxxxxxxxxxxx |xxxxxxxxxxxxx |xxxxxxxxxxxxx |     70051239 |     70051239 |     70051239 |xxxxxxxxxxxxx |xxxxxxxxxxxxx |xxxxxxxxxxxxx |xxxxxxxxxxxxx |    150281437 |    150281437 |    150281437 |
bpred_bimod.addr_hits                        53481 |        53480 |        53480 |xxxxxxxxxxxxx |xxxxxxxxxxxxx |xxxxxxxxxxxxx |xxxxxxxxxxxxx |       116761 |       116761 |       116762 |xxxxxxxxxxxxx |xxxxxxxxxxxxx |xxxxxxxxxxxxx |xxxxxxxxxxxxx |       259995 |       259997 |       259998 |xxxxxxxxxxxxx |xxxxxxxxxxxxx |xxxxxxxxxxxxx |xxxxxxxxxxxxx |       555212 |       555211 |       555212 |xxxxxxxxxxxxx |xxxxxxxxxxxxx |xxxxxxxxxxxxx |xxxxxxxxxxxxx |      1150370 |      1150369 |      1150369 |xxxxxxxxxxxxx |xxxxxxxxxxxxx |xxxxxxxxxxxxx |xxxxxxxxxxxxx |      2571448 |      2571447 |      2571448 |xxxxxxxxxxxxx |xxxxxxxxxxxxx |xxxxxxxxxxxxx |xxxxxxxxxxxxx |      5403576 |      5403575 |      5403577 |xxxxxxxxxxxxx |xxxxxxxxxxxxx |xxxxxxxxxxxxx |xxxxxxxxxxxxx |     11228735 |     11228734 |     11228734 |xxxxxxxxxxxxx |xxxxxxxxxxxxx |xxxxxxxxxxxxx |xxxxxxxxxxxxx |     24446371 |     24446370 |     24446371 |xxxxxxxxxxxxx |xxxxxxxxxxxxx |xxxxxxxxxxxxx |xxxxxxxxxxxxx |     51112070 |     51112069 |     51112070 |xxxxxxxxxxxxx |xxxxxxxxxxxxx |xxxxxxxxxxxxx |xxxxxxxxxxxxx |    111343108 |    111343107 |    111343108 |
bpred_bimod.dir_hits                         53592 |        53589 |        53590 |xxxxxxxxxxxxx |xxxxxxxxxxxxx |xxxxxxxxxxxxx |xxxxxxxxxxxxx |       116877 |       116873 |       116872 |xxxxxxxxxxxxx |xxxxxxxxxxxxx |xxxxxxxxxxxxx |xxxxxxxxxxxxx |       260108 |       260106 |       260108 |xxxxxxxxxxxxx |xxxxxxxxxxxxx |xxxxxxxxxxxxx |xxxxxxxxxxxxx |       555327 |       555323 |       555322 |xxxxxxxxxxxxx |xxxxxxxxxxxxx |xxxxxxxxxxxxx |xxxxxxxxxxxxx |      1150485 |      1150481 |      1150478 |xxxxxxxxxxxxx |xxxxxxxxxxxxx |xxxxxxxxxxxxx |xxxxxxxxxxxxx |      2571565 |      2571561 |      2571560 |xxxxxxxxxxxxx |xxxxxxxxxxxxx |xxxxxxxxxxxxx |xxxxxxxxxxxxx |      5403695 |      5403691 |      5403691 |xxxxxxxxxxxxx |xxxxxxxxxxxxx |xxxxxxxxxxxxx |xxxxxxxxxxxxx |     11228849 |     11228846 |     11228844 |xxxxxxxxxxxxx |xxxxxxxxxxxxx |xxxxxxxxxxxxx |xxxxxxxxxxxxx |     24446490 |     24446486 |     24446484 |xxxxxxxxxxxxx |xxxxxxxxxxxxx |xxxxxxxxxxxxx |xxxxxxxxxxxxx |     51112184 |     51112181 |     51112181 |xxxxxxxxxxxxx |xxxxxxxxxxxxx |xxxxxxxxxxxxx |xxxxxxxxxxxxx |    111343221 |    111343217 |    111343216 |
bpred_bimod.misses                           21833 |        21836 |        21835 |xxxxxxxxxxxxx |xxxxxxxxxxxxx |xxxxxxxxxxxxx |xxxxxxxxxxxxx |        46736 |        46740 |        46741 |xxxxxxxxxxxxx |xxxxxxxxxxxxx |xxxxxxxxxxxxx |xxxxxxxxxxxxx |        98638 |        98640 |        98638 |xxxxxxxxxxxxx |xxxxxxxxxxxxx |xxxxxxxxxxxxx |xxxxxxxxxxxxx |       214816 |       214820 |       214821 |xxxxxxxxxxxxx |xxxxxxxxxxxxx |xxxxxxxxxxxxx |xxxxxxxxxxxxx |       462232 |       462236 |       462239 |xxxxxxxxxxxxx |xxxxxxxxxxxxx |xxxxxxxxxxxxx |xxxxxxxxxxxxx |       945831 |       945835 |       945836 |xxxxxxxxxxxxx |xxxxxxxxxxxxx |xxxxxxxxxxxxx |xxxxxxxxxxxxx |      2021311 |      2021315 |      2021315 |xxxxxxxxxxxxx |xxxxxxxxxxxxx |xxxxxxxxxxxxx |xxxxxxxxxxxxx |      4340493 |      4340496 |      4340498 |xxxxxxxxxxxxx |xxxxxxxxxxxxx |xxxxxxxxxxxxx |xxxxxxxxxxxxx |      8996404 |      8996408 |      8996410 |xxxxxxxxxxxxx |xxxxxxxxxxxxx |xxxxxxxxxxxxx |xxxxxxxxxxxxx |     18939055 |     18939058 |     18939058 |xxxxxxxxxxxxx |xxxxxxxxxxxxx |xxxxxxxxxxxxx |xxxxxxxxxxxxx |     38938216 |     38938220 |     38938221 |
bpred_bimod.jr_hits                             64 |           64 |           64 |xxxxxxxxxxxxx |xxxxxxxxxxxxx |xxxxxxxxxxxxx |xxxxxxxxxxxxx |           64 |           64 |           64 |xxxxxxxxxxxxx |xxxxxxxxxxxxx |xxxxxxxxxxxxx |xxxxxxxxxxxxx |           64 |           64 |           64 |xxxxxxxxxxxxx |xxxxxxxxxxxxx |xxxxxxxxxxxxx |xxxxxxxxxxxxx |           64 |           64 |           64 |xxxxxxxxxxxxx |xxxxxxxxxxxxx |xxxxxxxxxxxxx |xxxxxxxxxxxxx |           64 |           64 |           64 |xxxxxxxxxxxxx |xxxxxxxxxxxxx |xxxxxxxxxxxxx |xxxxxxxxxxxxx |           64 |           64 |           64 |xxxxxxxxxxxxx |xxxxxxxxxxxxx |xxxxxxxxxxxxx |xxxxxxxxxxxxx |           64 |           64 |           64 |xxxxxxxxxxxxx |xxxxxxxxxxxxx |xxxxxxxxxxxxx |xxxxxxxxxxxxx |           64 |           64 |           64 |xxxxxxxxxxxxx |xxxxxxxxxxxxx |xxxxxxxxxxxxx |xxxxxxxxxxxxx |           64 |           64 |           64 |xxxxxxxxxxxxx |xxxxxxxxxxxxx |xxxxxxxxxxxxx |xxxxxxxxxxxxx |           64 |           64 |           64 |xxxxxxxxxxxxx |xxxxxxxxxxxxx |xxxxxxxxxxxxx |xxxxxxxxxxxxx |           64 |           64 |           64 |
bpred_bimod.jr_seen                             64 |           64 |           64 |xxxxxxxxxxxxx |xxxxxxxxxxxxx |xxxxxxxxxxxxx |xxxxxxxxxxxxx |           64 |           64 |           64 |xxxxxxxxxxxxx |xxxxxxxxxxxxx |xxxxxxxxxxxxx |xxxxxxxxxxxxx |           64 |           64 |           64 |xxxxxxxxxxxxx |xxxxxxxxxxxxx |xxxxxxxxxxxxx |xxxxxxxxxxxxx |           64 |           64 |           64 |xxxxxxxxxxxxx |xxxxxxxxxxxxx |xxxxxxxxxxxxx |xxxxxxxxxxxxx |           64 |           64 |           64 |xxxxxxxxxxxxx |xxxxxxxxxxxxx |xxxxxxxxxxxxx |xxxxxxxxxxxxx |           64 |           64 |           64 |xxxxxxxxxxxxx |xxxxxxxxxxxxx |xxxxxxxxxxxxx |xxxxxxxxxxxxx |           64 |           64 |           64 |xxxxxxxxxxxxx |xxxxxxxxxxxxx |xxxxxxxxxxxxx |xxxxxxxxxxxxx |           64 |           64 |           64 |xxxxxxxxxxxxx |xxxxxxxxxxxxx |xxxxxxxxxxxxx |xxxxxxxxxxxxx |           64 |           64 |           64 |xxxxxxxxxxxxx |xxxxxxxxxxxxx |xxxxxxxxxxxxx |xxxxxxxxxxxxx |           64 |           64 |           64 |xxxxxxxxxxxxx |xxxxxxxxxxxxx |xxxxxxxxxxxxx |xxxxxxxxxxxxx |           64 |           64 |           64 |
bpred_bimod.jr_non_ras_hits.PP                   0 |            0 |            0 |xxxxxxxxxxxxx |xxxxxxxxxxxxx |xxxxxxxxxxxxx |xxxxxxxxxxxxx |            0 |            0 |            0 |xxxxxxxxxxxxx |xxxxxxxxxxxxx |xxxxxxxxxxxxx |xxxxxxxxxxxxx |            0 |            0 |            0 |xxxxxxxxxxxxx |xxxxxxxxxxxxx |xxxxxxxxxxxxx |xxxxxxxxxxxxx |            0 |            0 |            0 |xxxxxxxxxxxxx |xxxxxxxxxxxxx |xxxxxxxxxxxxx |xxxxxxxxxxxxx |            0 |            0 |            0 |xxxxxxxxxxxxx |xxxxxxxxxxxxx |xxxxxxxxxxxxx |xxxxxxxxxxxxx |            0 |            0 |            0 |xxxxxxxxxxxxx |xxxxxxxxxxxxx |xxxxxxxxxxxxx |xxxxxxxxxxxxx |            0 |            0 |            0 |xxxxxxxxxxxxx |xxxxxxxxxxxxx |xxxxxxxxxxxxx |xxxxxxxxxxxxx |            0 |            0 |            0 |xxxxxxxxxxxxx |xxxxxxxxxxxxx |xxxxxxxxxxxxx |xxxxxxxxxxxxx |            0 |            0 |            0 |xxxxxxxxxxxxx |xxxxxxxxxxxxx |xxxxxxxxxxxxx |xxxxxxxxxxxxx |            0 |            0 |            0 |xxxxxxxxxxxxx |xxxxxxxxxxxxx |xxxxxxxxxxxxx |xxxxxxxxxxxxx |            0 |            0 |            0 |
bpred_bimod.jr_non_ras_seen.PP                   0 |            0 |            0 |xxxxxxxxxxxxx |xxxxxxxxxxxxx |xxxxxxxxxxxxx |xxxxxxxxxxxxx |            0 |            0 |            0 |xxxxxxxxxxxxx |xxxxxxxxxxxxx |xxxxxxxxxxxxx |xxxxxxxxxxxxx |            0 |            0 |            0 |xxxxxxxxxxxxx |xxxxxxxxxxxxx |xxxxxxxxxxxxx |xxxxxxxxxxxxx |            0 |            0 |            0 |xxxxxxxxxxxxx |xxxxxxxxxxxxx |xxxxxxxxxxxxx |xxxxxxxxxxxxx |            0 |            0 |            0 |xxxxxxxxxxxxx |xxxxxxxxxxxxx |xxxxxxxxxxxxx |xxxxxxxxxxxxx |            0 |            0 |            0 |xxxxxxxxxxxxx |xxxxxxxxxxxxx |xxxxxxxxxxxxx |xxxxxxxxxxxxx |            0 |            0 |            0 |xxxxxxxxxxxxx |xxxxxxxxxxxxx |xxxxxxxxxxxxx |xxxxxxxxxxxxx |            0 |            0 |            0 |xxxxxxxxxxxxx |xxxxxxxxxxxxx |xxxxxxxxxxxxx |xxxxxxxxxxxxx |            0 |            0 |            0 |xxxxxxxxxxxxx |xxxxxxxxxxxxx |xxxxxxxxxxxxx |xxxxxxxxxxxxx |            0 |            0 |            0 |xxxxxxxxxxxxx |xxxxxxxxxxxxx |xxxxxxxxxxxxx |xxxxxxxxxxxxx |            0 |            0 |            0 |
bpred_bimod.bpred_addr_rate                 0.7091 |       0.7090 |       0.7090 |xxxxxxxxxxxxx |xxxxxxxxxxxxx |xxxxxxxxxxxxx |xxxxxxxxxxxxx |       0.7136 |       0.7136 |       0.7136 |xxxxxxxxxxxxx |xxxxxxxxxxxxx |xxxxxxxxxxxxx |xxxxxxxxxxxxx |       0.7247 |       0.7247 |       0.7247 |xxxxxxxxxxxxx |xxxxxxxxxxxxx |xxxxxxxxxxxxx |xxxxxxxxxxxxx |       0.7209 |       0.7209 |       0.7209 |xxxxxxxxxxxxx |xxxxxxxxxxxxx |xxxxxxxxxxxxx |xxxxxxxxxxxxx |       0.7133 |       0.7133 |       0.7133 |xxxxxxxxxxxxx |xxxxxxxxxxxxx |xxxxxxxxxxxxx |xxxxxxxxxxxxx |       0.7311 |       0.7311 |       0.7311 |xxxxxxxxxxxxx |xxxxxxxxxxxxx |xxxxxxxxxxxxx |xxxxxxxxxxxxx |       0.7278 |       0.7278 |       0.7278 |xxxxxxxxxxxxx |xxxxxxxxxxxxx |xxxxxxxxxxxxx |xxxxxxxxxxxxx |       0.7212 |       0.7212 |       0.7212 |xxxxxxxxxxxxx |xxxxxxxxxxxxx |xxxxxxxxxxxxx |xxxxxxxxxxxxx |       0.7310 |       0.7310 |       0.7310 |xxxxxxxxxxxxx |xxxxxxxxxxxxx |xxxxxxxxxxxxx |xxxxxxxxxxxxx |       0.7296 |       0.7296 |       0.7296 |xxxxxxxxxxxxx |xxxxxxxxxxxxx |xxxxxxxxxxxxx |xxxxxxxxxxxxx |       0.7409 |       0.7409 |       0.7409 |
bpred_bimod.bpred_dir_rate                  0.7105 |       0.7105 |       0.7105 |xxxxxxxxxxxxx |xxxxxxxxxxxxx |xxxxxxxxxxxxx |xxxxxxxxxxxxx |       0.7144 |       0.7143 |       0.7143 |xxxxxxxxxxxxx |xxxxxxxxxxxxx |xxxxxxxxxxxxx |xxxxxxxxxxxxx |       0.7250 |       0.7250 |       0.7250 |xxxxxxxxxxxxx |xxxxxxxxxxxxx |xxxxxxxxxxxxx |xxxxxxxxxxxxx |       0.7211 |       0.7211 |       0.7211 |xxxxxxxxxxxxx |xxxxxxxxxxxxx |xxxxxxxxxxxxx |xxxxxxxxxxxxx |       0.7134 |       0.7134 |       0.7134 |xxxxxxxxxxxxx |xxxxxxxxxxxxx |xxxxxxxxxxxxx |xxxxxxxxxxxxx |       0.7311 |       0.7311 |       0.7311 |xxxxxxxxxxxxx |xxxxxxxxxxxxx |xxxxxxxxxxxxx |xxxxxxxxxxxxx |       0.7278 |       0.7278 |       0.7278 |xxxxxxxxxxxxx |xxxxxxxxxxxxx |xxxxxxxxxxxxx |xxxxxxxxxxxxx |       0.7212 |       0.7212 |       0.7212 |xxxxxxxxxxxxx |xxxxxxxxxxxxx |xxxxxxxxxxxxx |xxxxxxxxxxxxx |       0.7310 |       0.7310 |       0.7310 |xxxxxxxxxxxxx |xxxxxxxxxxxxx |xxxxxxxxxxxxx |xxxxxxxxxxxxx |       0.7296 |       0.7296 |       0.7296 |xxxxxxxxxxxxx |xxxxxxxxxxxxx |xxxxxxxxxxxxx |xxxxxxxxxxxxx |       0.7409 |       0.7409 |       0.7409 |
bpred_bimod.bpred_jr_rate                   1.0000 |       1.0000 |       1.0000 |xxxxxxxxxxxxx |xxxxxxxxxxxxx |xxxxxxxxxxxxx |xxxxxxxxxxxxx |       1.0000 |       1.0000 |       1.0000 |xxxxxxxxxxxxx |xxxxxxxxxxxxx |xxxxxxxxxxxxx |xxxxxxxxxxxxx |       1.0000 |       1.0000 |       1.0000 |xxxxxxxxxxxxx |xxxxxxxxxxxxx |xxxxxxxxxxxxx |xxxxxxxxxxxxx |       1.0000 |       1.0000 |       1.0000 |xxxxxxxxxxxxx |xxxxxxxxxxxxx |xxxxxxxxxxxxx |xxxxxxxxxxxxx |       1.0000 |       1.0000 |       1.0000 |xxxxxxxxxxxxx |xxxxxxxxxxxxx |xxxxxxxxxxxxx |xxxxxxxxxxxxx |       1.0000 |       1.0000 |       1.0000 |xxxxxxxxxxxxx |xxxxxxxxxxxxx |xxxxxxxxxxxxx |xxxxxxxxxxxxx |       1.0000 |       1.0000 |       1.0000 |xxxxxxxxxxxxx |xxxxxxxxxxxxx |xxxxxxxxxxxxx |xxxxxxxxxxxxx |       1.0000 |       1.0000 |       1.0000 |xxxxxxxxxxxxx |xxxxxxxxxxxxx |xxxxxxxxxxxxx |xxxxxxxxxxxxx |       1.0000 |       1.0000 |       1.0000 |xxxxxxxxxxxxx |xxxxxxxxxxxxx |xxxxxxxxxxxxx |xxxxxxxxxxxxx |       1.0000 |       1.0000 |       1.0000 |xxxxxxxxxxxxx |xxxxxxxxxxxxx |xxxxxxxxxxxxx |xxxxxxxxxxxxx |       1.0000 |       1.0000 |       1.0000 |
bpred_bimod.bpred_jr_non_ras_rate.PP       <error: |      <error: |      <error: |xxxxxxxxxxxxx |xxxxxxxxxxxxx |xxxxxxxxxxxxx |xxxxxxxxxxxxx |      <error: |      <error: |      <error: |xxxxxxxxxxxxx |xxxxxxxxxxxxx |xxxxxxxxxxxxx |xxxxxxxxxxxxx |      <error: |      <error: |      <error: |xxxxxxxxxxxxx |xxxxxxxxxxxxx |xxxxxxxxxxxxx |xxxxxxxxxxxxx |      <error: |      <error: |      <error: |xxxxxxxxxxxxx |xxxxxxxxxxxxx |xxxxxxxxxxxxx |xxxxxxxxxxxxx |      <error: |      <error: |      <error: |xxxxxxxxxxxxx |xxxxxxxxxxxxx |xxxxxxxxxxxxx |xxxxxxxxxxxxx |      <error: |      <error: |      <error: |xxxxxxxxxxxxx |xxxxxxxxxxxxx |xxxxxxxxxxxxx |xxxxxxxxxxxxx |      <error: |      <error: |      <error: |xxxxxxxxxxxxx |xxxxxxxxxxxxx |xxxxxxxxxxxxx |xxxxxxxxxxxxx |      <error: |      <error: |      <error: |xxxxxxxxxxxxx |xxxxxxxxxxxxx |xxxxxxxxxxxxx |xxxxxxxxxxxxx |      <error: |      <error: |      <error: |xxxxxxxxxxxxx |xxxxxxxxxxxxx |xxxxxxxxxxxxx |xxxxxxxxxxxxx |      <error: |      <error: |      <error: |xxxxxxxxxxxxx |xxxxxxxxxxxxx |xxxxxxxxxxxxx |xxxxxxxxxxxxx |      <error: |      <error: |      <error: |
bpred_bimod.retstack_pushes                     66 |           66 |           66 |xxxxxxxxxxxxx |xxxxxxxxxxxxx |xxxxxxxxxxxxx |xxxxxxxxxxxxx |           66 |           66 |           66 |xxxxxxxxxxxxx |xxxxxxxxxxxxx |xxxxxxxxxxxxx |xxxxxxxxxxxxx |           66 |           66 |           66 |xxxxxxxxxxxxx |xxxxxxxxxxxxx |xxxxxxxxxxxxx |xxxxxxxxxxxxx |           66 |           66 |           66 |xxxxxxxxxxxxx |xxxxxxxxxxxxx |xxxxxxxxxxxxx |xxxxxxxxxxxxx |           66 |           66 |           66 |xxxxxxxxxxxxx |xxxxxxxxxxxxx |xxxxxxxxxxxxx |xxxxxxxxxxxxx |           66 |           66 |           66 |xxxxxxxxxxxxx |xxxxxxxxxxxxx |xxxxxxxxxxxxx |xxxxxxxxxxxxx |           66 |           66 |           66 |xxxxxxxxxxxxx |xxxxxxxxxxxxx |xxxxxxxxxxxxx |xxxxxxxxxxxxx |           66 |           66 |           66 |xxxxxxxxxxxxx |xxxxxxxxxxxxx |xxxxxxxxxxxxx |xxxxxxxxxxxxx |           66 |           66 |           66 |xxxxxxxxxxxxx |xxxxxxxxxxxxx |xxxxxxxxxxxxx |xxxxxxxxxxxxx |           66 |           66 |           66 |xxxxxxxxxxxxx |xxxxxxxxxxxxx |xxxxxxxxxxxxx |xxxxxxxxxxxxx |           66 |           66 |           66 |
bpred_bimod.retstack_pops                       64 |           64 |           64 |xxxxxxxxxxxxx |xxxxxxxxxxxxx |xxxxxxxxxxxxx |xxxxxxxxxxxxx |           64 |           64 |           64 |xxxxxxxxxxxxx |xxxxxxxxxxxxx |xxxxxxxxxxxxx |xxxxxxxxxxxxx |           64 |           64 |           64 |xxxxxxxxxxxxx |xxxxxxxxxxxxx |xxxxxxxxxxxxx |xxxxxxxxxxxxx |           64 |           64 |           64 |xxxxxxxxxxxxx |xxxxxxxxxxxxx |xxxxxxxxxxxxx |xxxxxxxxxxxxx |           64 |           64 |           64 |xxxxxxxxxxxxx |xxxxxxxxxxxxx |xxxxxxxxxxxxx |xxxxxxxxxxxxx |           64 |           64 |           64 |xxxxxxxxxxxxx |xxxxxxxxxxxxx |xxxxxxxxxxxxx |xxxxxxxxxxxxx |           64 |           64 |           64 |xxxxxxxxxxxxx |xxxxxxxxxxxxx |xxxxxxxxxxxxx |xxxxxxxxxxxxx |           64 |           64 |           64 |xxxxxxxxxxxxx |xxxxxxxxxxxxx |xxxxxxxxxxxxx |xxxxxxxxxxxxx |           64 |           64 |           64 |xxxxxxxxxxxxx |xxxxxxxxxxxxx |xxxxxxxxxxxxx |xxxxxxxxxxxxx |           64 |           64 |           64 |xxxxxxxxxxxxx |xxxxxxxxxxxxx |xxxxxxxxxxxxx |xxxxxxxxxxxxx |           64 |           64 |           64 |
bpred_bimod.used_ras.PP                         64 |           64 |           64 |xxxxxxxxxxxxx |xxxxxxxxxxxxx |xxxxxxxxxxxxx |xxxxxxxxxxxxx |           64 |           64 |           64 |xxxxxxxxxxxxx |xxxxxxxxxxxxx |xxxxxxxxxxxxx |xxxxxxxxxxxxx |           64 |           64 |           64 |xxxxxxxxxxxxx |xxxxxxxxxxxxx |xxxxxxxxxxxxx |xxxxxxxxxxxxx |           64 |           64 |           64 |xxxxxxxxxxxxx |xxxxxxxxxxxxx |xxxxxxxxxxxxx |xxxxxxxxxxxxx |           64 |           64 |           64 |xxxxxxxxxxxxx |xxxxxxxxxxxxx |xxxxxxxxxxxxx |xxxxxxxxxxxxx |           64 |           64 |           64 |xxxxxxxxxxxxx |xxxxxxxxxxxxx |xxxxxxxxxxxxx |xxxxxxxxxxxxx |           64 |           64 |           64 |xxxxxxxxxxxxx |xxxxxxxxxxxxx |xxxxxxxxxxxxx |xxxxxxxxxxxxx |           64 |           64 |           64 |xxxxxxxxxxxxx |xxxxxxxxxxxxx |xxxxxxxxxxxxx |xxxxxxxxxxxxx |           64 |           64 |           64 |xxxxxxxxxxxxx |xxxxxxxxxxxxx |xxxxxxxxxxxxx |xxxxxxxxxxxxx |           64 |           64 |           64 |xxxxxxxxxxxxx |xxxxxxxxxxxxx |xxxxxxxxxxxxx |xxxxxxxxxxxxx |           64 |           64 |           64 |
bpred_bimod.ras_hits.PP                         64 |           64 |           64 |xxxxxxxxxxxxx |xxxxxxxxxxxxx |xxxxxxxxxxxxx |xxxxxxxxxxxxx |           64 |           64 |           64 |xxxxxxxxxxxxx |xxxxxxxxxxxxx |xxxxxxxxxxxxx |xxxxxxxxxxxxx |           64 |           64 |           64 |xxxxxxxxxxxxx |xxxxxxxxxxxxx |xxxxxxxxxxxxx |xxxxxxxxxxxxx |           64 |           64 |           64 |xxxxxxxxxxxxx |xxxxxxxxxxxxx |xxxxxxxxxxxxx |xxxxxxxxxxxxx |           64 |           64 |           64 |xxxxxxxxxxxxx |xxxxxxxxxxxxx |xxxxxxxxxxxxx |xxxxxxxxxxxxx |           64 |           64 |           64 |xxxxxxxxxxxxx |xxxxxxxxxxxxx |xxxxxxxxxxxxx |xxxxxxxxxxxxx |           64 |           64 |           64 |xxxxxxxxxxxxx |xxxxxxxxxxxxx |xxxxxxxxxxxxx |xxxxxxxxxxxxx |           64 |           64 |           64 |xxxxxxxxxxxxx |xxxxxxxxxxxxx |xxxxxxxxxxxxx |xxxxxxxxxxxxx |           64 |           64 |           64 |xxxxxxxxxxxxx |xxxxxxxxxxxxx |xxxxxxxxxxxxx |xxxxxxxxxxxxx |           64 |           64 |           64 |xxxxxxxxxxxxx |xxxxxxxxxxxxx |xxxxxxxxxxxxx |xxxxxxxxxxxxx |           64 |           64 |           64 |
bpred_bimod.ras_rate.PP                     1.0000 |       1.0000 |       1.0000 |xxxxxxxxxxxxx |xxxxxxxxxxxxx |xxxxxxxxxxxxx |xxxxxxxxxxxxx |       1.0000 |       1.0000 |       1.0000 |xxxxxxxxxxxxx |xxxxxxxxxxxxx |xxxxxxxxxxxxx |xxxxxxxxxxxxx |       1.0000 |       1.0000 |       1.0000 |xxxxxxxxxxxxx |xxxxxxxxxxxxx |xxxxxxxxxxxxx |xxxxxxxxxxxxx |       1.0000 |       1.0000 |       1.0000 |xxxxxxxxxxxxx |xxxxxxxxxxxxx |xxxxxxxxxxxxx |xxxxxxxxxxxxx |       1.0000 |       1.0000 |       1.0000 |xxxxxxxxxxxxx |xxxxxxxxxxxxx |xxxxxxxxxxxxx |xxxxxxxxxxxxx |       1.0000 |       1.0000 |       1.0000 |xxxxxxxxxxxxx |xxxxxxxxxxxxx |xxxxxxxxxxxxx |xxxxxxxxxxxxx |       1.0000 |       1.0000 |       1.0000 |xxxxxxxxxxxxx |xxxxxxxxxxxxx |xxxxxxxxxxxxx |xxxxxxxxxxxxx |       1.0000 |       1.0000 |       1.0000 |xxxxxxxxxxxxx |xxxxxxxxxxxxx |xxxxxxxxxxxxx |xxxxxxxxxxxxx |       1.0000 |       1.0000 |       1.0000 |xxxxxxxxxxxxx |xxxxxxxxxxxxx |xxxxxxxxxxxxx |xxxxxxxxxxxxx |       1.0000 |       1.0000 |       1.0000 |xxxxxxxxxxxxx |xxxxxxxxxxxxx |xxxxxxxxxxxxx |xxxxxxxxxxxxx |       1.0000 |       1.0000 |       1.0000 |
bpred_2lev.lookups                   xxxxxxxxxxxxx |xxxxxxxxxxxxx |xxxxxxxxxxxxx |        75425 |        75425 |        75425 |        75425 |xxxxxxxxxxxxx |xxxxxxxxxxxxx |xxxxxxxxxxxxx |       163613 |       163613 |       163613 |       163613 |xxxxxxxxxxxxx |xxxxxxxxxxxxx |xxxxxxxxxxxxx |       358746 |       358746 |       358746 |       358746 |xxxxxxxxxxxxx |xxxxxxxxxxxxx |xxxxxxxxxxxxx |       770143 |       770143 |       770143 |       770143 |xxxxxxxxxxxxx |xxxxxxxxxxxxx |xxxxxxxxxxxxx |      1612717 |      1612717 |      1612717 |      1612717 |xxxxxxxxxxxxx |xxxxxxxxxxxxx |xxxxxxxxxxxxx |      3517396 |      3517396 |      3517396 |      3517396 |xxxxxxxxxxxxx |xxxxxxxxxxxxx |xxxxxxxxxxxxx |      7425006 |      7425006 |      7425006 |      7425006 |xxxxxxxxxxxxx |xxxxxxxxxxxxx |xxxxxxxxxxxxx |     15569342 |     15569342 |     15569342 |     15569342 |xxxxxxxxxxxxx |xxxxxxxxxxxxx |xxxxxxxxxxxxx |     33442894 |     33442894 |     33442894 |     33442894 |xxxxxxxxxxxxx |xxxxxxxxxxxxx |xxxxxxxxxxxxx |     70051239 |     70051239 |     70051239 |     70051239 |xxxxxxxxxxxxx |xxxxxxxxxxxxx |xxxxxxxxxxxxx |    150281437 |    150281437 |    150281437 |    150281437 |
[...]
bpred_2lev.retstack_pops             xxxxxxxxxxxxx |xxxxxxxxxxxxx |xxxxxxxxxxxxx |           64 |           64 |           64 |           64 |xxxxxxxxxxxxx |xxxxxxxxxxxxx |xxxxxxxxxxxxx |           64 |           64 |           64 |           64 |xxxxxxxxxxxxx |xxxxxxxxxxxxx |xxxxxxxxxxxxx |           64 |           64 |           64 |           64 |xxxxxxxxxxxxx |xxxxxxxxxxxxx |xxxxxxxxxxxxx |           64 |           64 |           64 |           64 |xxxxxxxxxxxxx |xxxxxxxxxxxxx |xxxxxxxxxxxxx |           64 |           64 |           64 |           64 |xxxxxxxxxxxxx |xxxxxxxxxxxxx |xxxxxxxxxxxxx |           64 |           64 |           64 |           64 |xxxxxxxxxxxxx |xxxxxxxxxxxxx |xxxxxxxxxxxxx |           64 |           64 |           64 |           64 |xxxxxxxxxxxxx |xxxxxxxxxxxxx |xxxxxxxxxxxxx |           64 |           64 |           64 |           64 |xxxxxxxxxxxxx |xxxxxxxxxxxxx |xxxxxxxxxxxxx |           64 |           64 |           64 |           64 |xxxxxxxxxxxxx |xxxxxxxxxxxxx |xxxxxxxxxxxxx |           64 |           64 |           64 |           64 |xxxxxxxxxxxxx |xxxxxxxxxxxxx |xxxxxxxxxxxxx |           64 |           64 |           64 |           64 |
bpred_2lev.used_ras.PP               xxxxxxxxxxxxx |xxxxxxxxxxxxx |xxxxxxxxxxxxx |           64 |           64 |           64 |           64 |xxxxxxxxxxxxx |xxxxxxxxxxxxx |xxxxxxxxxxxxx |           64 |           64 |           64 |           64 |xxxxxxxxxxxxx |xxxxxxxxxxxxx |xxxxxxxxxxxxx |           64 |           64 |           64 |           64 |xxxxxxxxxxxxx |xxxxxxxxxxxxx |xxxxxxxxxxxxx |           64 |           64 |           64 |           64 |xxxxxxxxxxxxx |xxxxxxxxxxxxx |xxxxxxxxxxxxx |           64 |           64 |           64 |           64 |xxxxxxxxxxxxx |xxxxxxxxxxxxx |xxxxxxxxxxxxx |           64 |           64 |           64 |           64 |xxxxxxxxxxxxx |xxxxxxxxxxxxx |xxxxxxxxxxxxx |           64 |           64 |           64 |           64 |xxxxxxxxxxxxx |xxxxxxxxxxxxx |xxxxxxxxxxxxx |           64 |           64 |           64 |           64 |xxxxxxxxxxxxx |xxxxxxxxxxxxx |xxxxxxxxxxxxx |           64 |           64 |           64 |           64 |xxxxxxxxxxxxx |xxxxxxxxxxxxx |xxxxxxxxxxxxx |           64 |           64 |           64 |           64 |xxxxxxxxxxxxx |xxxxxxxxxxxxx |xxxxxxxxxxxxx |           64 |           64 |           64 |           64 |
bpred_2lev.ras_hits.PP               xxxxxxxxxxxxx |xxxxxxxxxxxxx |xxxxxxxxxxxxx |           64 |           64 |           64 |           64 |xxxxxxxxxxxxx |xxxxxxxxxxxxx |xxxxxxxxxxxxx |           64 |           64 |           64 |           64 |xxxxxxxxxxxxx |xxxxxxxxxxxxx |xxxxxxxxxxxxx |           64 |           64 |           64 |           64 |xxxxxxxxxxxxx |xxxxxxxxxxxxx |xxxxxxxxxxxxx |           64 |           64 |           64 |           64 |xxxxxxxxxxxxx |xxxxxxxxxxxxx |xxxxxxxxxxxxx |           64 |           64 |           64 |           64 |xxxxxxxxxxxxx |xxxxxxxxxxxxx |xxxxxxxxxxxxx |           64 |           64 |           64 |           64 |xxxxxxxxxxxxx |xxxxxxxxxxxxx |xxxxxxxxxxxxx |           64 |           64 |           64 |           64 |xxxxxxxxxxxxx |xxxxxxxxxxxxx |xxxxxxxxxxxxx |           64 |           64 |           64 |           64 |xxxxxxxxxxxxx |xxxxxxxxxxxxx |xxxxxxxxxxxxx |           64 |           64 |           64 |           64 |xxxxxxxxxxxxx |xxxxxxxxxxxxx |xxxxxxxxxxxxx |           64 |           64 |           64 |           64 |xxxxxxxxxxxxx |xxxxxxxxxxxxx |xxxxxxxxxxxxx |           64 |           64 |           64 |           64 |
bpred_2lev.ras_rate.PP               xxxxxxxxxxxxx |xxxxxxxxxxxxx |xxxxxxxxxxxxx |       1.0000 |       1.0000 |       1.0000 |       1.0000 |xxxxxxxxxxxxx |xxxxxxxxxxxxx |xxxxxxxxxxxxx |       1.0000 |       1.0000 |       1.0000 |       1.0000 |xxxxxxxxxxxxx |xxxxxxxxxxxxx |xxxxxxxxxxxxx |       1.0000 |       1.0000 |       1.0000 |       1.0000 |xxxxxxxxxxxxx |xxxxxxxxxxxxx |xxxxxxxxxxxxx |       1.0000 |       1.0000 |       1.0000 |       1.0000 |xxxxxxxxxxxxx |xxxxxxxxxxxxx |xxxxxxxxxxxxx |       1.0000 |       1.0000 |       1.0000 |       1.0000 |xxxxxxxxxxxxx |xxxxxxxxxxxxx |xxxxxxxxxxxxx |       1.0000 |       1.0000 |       1.0000 |       1.0000 |xxxxxxxxxxxxx |xxxxxxxxxxxxx |xxxxxxxxxxxxx |       1.0000 |       1.0000 |       1.0000 |       1.0000 |xxxxxxxxxxxxx |xxxxxxxxxxxxx |xxxxxxxxxxxxx |       1.0000 |       1.0000 |       1.0000 |       1.0000 |xxxxxxxxxxxxx |xxxxxxxxxxxxx |xxxxxxxxxxxxx |       1.0000 |       1.0000 |       1.0000 |       1.0000 |xxxxxxxxxxxxx |xxxxxxxxxxxxx |xxxxxxxxxxxxx |       1.0000 |       1.0000 |       1.0000 |       1.0000 |xxxxxxxxxxxxx |xxxxxxxxxxxxx |xxxxxxxxxxxxx |       1.0000 |       1.0000 |       1.0000 |       1.0000 |

Command list: 
	sslittle-na-sstrix-gcc -Wall -O3 -funroll-loops -finline-functions  -DRANDOM_SIZE=4096 -DOFFSET=1 -DSORT=memory_tuned_quicksort sorts/memory_tuned_quicksort2103485862.c simpleMain.c -o memory_tuned_quicksort1027573967
	sim-cache -cache:dl1 dl1:256:32:1:l -cache:dl2 dl2:131072:32:1:l -cache:il1 il1:256:32:1:l -cache:il2 dl2 memory_tuned_quicksort1027573967
	sim-cache -cache:dl1 dl1:256:32:1:l -cache:dl2 dl2:65536:32:1:l -cache:il1 il1:256:32:1:l -cache:il2 dl2 memory_tuned_quicksort1027573967
	sim-cache -cache:dl1 dl1:1:32:256:l -cache:dl2 dl2:1:32:131072:l -cache:il1 il1:1:32:256:l -cache:il2 dl2 memory_tuned_quicksort1027573967
	sim-cache -cache:dl1 dl1:1:32:256:l -cache:dl2 dl2:1:32:65536:l -cache:il1 il1:1:32:256:l -cache:il2 dl2 memory_tuned_quicksort1027573967
	sim-bpred -bpred bimod -bpred:bimod 512 memory_tuned_quicksort1027573967
	sim-bpred -bpred bimod -bpred:bimod 1024 memory_tuned_quicksort1027573967
	sim-bpred -bpred bimod -bpred:bimod 2048 memory_tuned_quicksort1027573967
	sim-bpred -bpred 2lev -bpred:2lev 1 512 10 1 memory_tuned_quicksort1027573967
	sim-bpred -bpred 2lev -bpred:2lev 1 1024 10 1 memory_tuned_quicksort1027573967
	sim-bpred -bpred 2lev -bpred:2lev 1 2048 10 1 memory_tuned_quicksort1027573967
	sim-bpred -bpred 2lev -bpred:2lev 1 4096 10 1 memory_tuned_quicksort1027573967
	sslittle-na-sstrix-gcc -Wall -O3 -funroll-loops -finline-functions  -DRANDOM_SIZE=8192 -DOFFSET=1 -DSORT=memory_tuned_quicksort sorts/memory_tuned_quicksort2103485862.c simpleMain.c -o memory_tuned_quicksort1027573967
	sim-cache -cache:dl1 dl1:256:32:1:l -cache:dl2 dl2:131072:32:1:l -cache:il1 il1:256:32:1:l -cache:il2 dl2 memory_tuned_quicksort1027573967
	sim-cache -cache:dl1 dl1:256:32:1:l -cache:dl2 dl2:65536:32:1:l -cache:il1 il1:256:32:1:l -cache:il2 dl2 memory_tuned_quicksort1027573967
	sim-cache -cache:dl1 dl1:1:32:256:l -cache:dl2 dl2:1:32:131072:l -cache:il1 il1:1:32:256:l -cache:il2 dl2 memory_tuned_quicksort1027573967
	sim-cache -cache:dl1 dl1:1:32:256:l -cache:dl2 dl2:1:32:65536:l -cache:il1 il1:1:32:256:l -cache:il2 dl2 memory_tuned_quicksort1027573967
	sim-bpred -bpred bimod -bpred:bimod 512 memory_tuned_quicksort1027573967
	sim-bpred -bpred bimod -bpred:bimod 1024 memory_tuned_quicksort1027573967
	sim-bpred -bpred bimod -bpred:bimod 2048 memory_tuned_quicksort1027573967
	sim-bpred -bpred 2lev -bpred:2lev 1 512 10 1 memory_tuned_quicksort1027573967
	sim-bpred -bpred 2lev -bpred:2lev 1 1024 10 1 memory_tuned_quicksort1027573967
	sim-bpred -bpred 2lev -bpred:2lev 1 2048 10 1 memory_tuned_quicksort1027573967
	sim-bpred -bpred 2lev -bpred:2lev 1 4096 10 1 memory_tuned_quicksort1027573967
	sslittle-na-sstrix-gcc -Wall -O3 -funroll-loops -finline-functions  -DRANDOM_SIZE=16384 -DOFFSET=1 -DSORT=memory_tuned_quicksort sorts/memory_tuned_quicksort2103485862.c simpleMain.c -o memory_tuned_quicksort1027573967
	sim-cache -cache:dl1 dl1:256:32:1:l -cache:dl2 dl2:131072:32:1:l -cache:il1 il1:256:32:1:l -cache:il2 dl2 memory_tuned_quicksort1027573967
	sim-cache -cache:dl1 dl1:256:32:1:l -cache:dl2 dl2:65536:32:1:l -cache:il1 il1:256:32:1:l -cache:il2 dl2 memory_tuned_quicksort1027573967
	sim-cache -cache:dl1 dl1:1:32:256:l -cache:dl2 dl2:1:32:131072:l -cache:il1 il1:1:32:256:l -cache:il2 dl2 memory_tuned_quicksort1027573967
	sim-cache -cache:dl1 dl1:1:32:256:l -cache:dl2 dl2:1:32:65536:l -cache:il1 il1:1:32:256:l -cache:il2 dl2 memory_tuned_quicksort1027573967
	sim-bpred -bpred bimod -bpred:bimod 512 memory_tuned_quicksort1027573967
	sim-bpred -bpred bimod -bpred:bimod 1024 memory_tuned_quicksort1027573967
	sim-bpred -bpred bimod -bpred:bimod 2048 memory_tuned_quicksort1027573967
	sim-bpred -bpred 2lev -bpred:2lev 1 512 10 1 memory_tuned_quicksort1027573967
	sim-bpred -bpred 2lev -bpred:2lev 1 1024 10 1 memory_tuned_quicksort1027573967
	sim-bpred -bpred 2lev -bpred:2lev 1 2048 10 1 memory_tuned_quicksort1027573967
	sim-bpred -bpred 2lev -bpred:2lev 1 4096 10 1 memory_tuned_quicksort1027573967
	sslittle-na-sstrix-gcc -Wall -O3 -funroll-loops -finline-functions  -DRANDOM_SIZE=32768 -DOFFSET=1 -DSORT=memory_tuned_quicksort sorts/memory_tuned_quicksort2103485862.c simpleMain.c -o memory_tuned_quicksort1027573967
	sim-cache -cache:dl1 dl1:256:32:1:l -cache:dl2 dl2:131072:32:1:l -cache:il1 il1:256:32:1:l -cache:il2 dl2 memory_tuned_quicksort1027573967
	sim-cache -cache:dl1 dl1:256:32:1:l -cache:dl2 dl2:65536:32:1:l -cache:il1 il1:256:32:1:l -cache:il2 dl2 memory_tuned_quicksort1027573967
	sim-cache -cache:dl1 dl1:1:32:256:l -cache:dl2 dl2:1:32:131072:l -cache:il1 il1:1:32:256:l -cache:il2 dl2 memory_tuned_quicksort1027573967
	sim-cache -cache:dl1 dl1:1:32:256:l -cache:dl2 dl2:1:32:65536:l -cache:il1 il1:1:32:256:l -cache:il2 dl2 memory_tuned_quicksort1027573967
	sim-bpred -bpred bimod -bpred:bimod 512 memory_tuned_quicksort1027573967
	sim-bpred -bpred bimod -bpred:bimod 1024 memory_tuned_quicksort1027573967
	sim-bpred -bpred bimod -bpred:bimod 2048 memory_tuned_quicksort1027573967
	sim-bpred -bpred 2lev -bpred:2lev 1 512 10 1 memory_tuned_quicksort1027573967
	sim-bpred -bpred 2lev -bpred:2lev 1 1024 10 1 memory_tuned_quicksort1027573967
	sim-bpred -bpred 2lev -bpred:2lev 1 2048 10 1 memory_tuned_quicksort1027573967
	sim-bpred -bpred 2lev -bpred:2lev 1 4096 10 1 memory_tuned_quicksort1027573967
	sslittle-na-sstrix-gcc -Wall -O3 -funroll-loops -finline-functions  -DRANDOM_SIZE=65536 -DOFFSET=1 -DSORT=memory_tuned_quicksort sorts/memory_tuned_quicksort2103485862.c simpleMain.c -o memory_tuned_quicksort1027573967
	sim-cache -cache:dl1 dl1:256:32:1:l -cache:dl2 dl2:131072:32:1:l -cache:il1 il1:256:32:1:l -cache:il2 dl2 memory_tuned_quicksort1027573967
	sim-cache -cache:dl1 dl1:256:32:1:l -cache:dl2 dl2:65536:32:1:l -cache:il1 il1:256:32:1:l -cache:il2 dl2 memory_tuned_quicksort1027573967
	sim-cache -cache:dl1 dl1:1:32:256:l -cache:dl2 dl2:1:32:131072:l -cache:il1 il1:1:32:256:l -cache:il2 dl2 memory_tuned_quicksort1027573967
	sim-cache -cache:dl1 dl1:1:32:256:l -cache:dl2 dl2:1:32:65536:l -cache:il1 il1:1:32:256:l -cache:il2 dl2 memory_tuned_quicksort1027573967
	sim-bpred -bpred bimod -bpred:bimod 512 memory_tuned_quicksort1027573967
	sim-bpred -bpred bimod -bpred:bimod 1024 memory_tuned_quicksort1027573967
	sim-bpred -bpred bimod -bpred:bimod 2048 memory_tuned_quicksort1027573967
	sim-bpred -bpred 2lev -bpred:2lev 1 512 10 1 memory_tuned_quicksort1027573967
	sim-bpred -bpred 2lev -bpred:2lev 1 1024 10 1 memory_tuned_quicksort1027573967
	sim-bpred -bpred 2lev -bpred:2lev 1 2048 10 1 memory_tuned_quicksort1027573967
	sim-bpred -bpred 2lev -bpred:2lev 1 4096 10 1 memory_tuned_quicksort1027573967
	sslittle-na-sstrix-gcc -Wall -O3 -funroll-loops -finline-functions  -DRANDOM_SIZE=131072 -DOFFSET=1 -DSORT=memory_tuned_quicksort sorts/memory_tuned_quicksort2103485862.c simpleMain.c -o memory_tuned_quicksort1027573967
	sim-cache -cache:dl1 dl1:256:32:1:l -cache:dl2 dl2:131072:32:1:l -cache:il1 il1:256:32:1:l -cache:il2 dl2 memory_tuned_quicksort1027573967
	sim-cache -cache:dl1 dl1:256:32:1:l -cache:dl2 dl2:65536:32:1:l -cache:il1 il1:256:32:1:l -cache:il2 dl2 memory_tuned_quicksort1027573967
	sim-cache -cache:dl1 dl1:1:32:256:l -cache:dl2 dl2:1:32:131072:l -cache:il1 il1:1:32:256:l -cache:il2 dl2 memory_tuned_quicksort1027573967
	sim-cache -cache:dl1 dl1:1:32:256:l -cache:dl2 dl2:1:32:65536:l -cache:il1 il1:1:32:256:l -cache:il2 dl2 memory_tuned_quicksort1027573967
	sim-bpred -bpred bimod -bpred:bimod 512 memory_tuned_quicksort1027573967
	sim-bpred -bpred bimod -bpred:bimod 1024 memory_tuned_quicksort1027573967
	sim-bpred -bpred bimod -bpred:bimod 2048 memory_tuned_quicksort1027573967
	sim-bpred -bpred 2lev -bpred:2lev 1 512 10 1 memory_tuned_quicksort1027573967
	sim-bpred -bpred 2lev -bpred:2lev 1 1024 10 1 memory_tuned_quicksort1027573967
	sim-bpred -bpred 2lev -bpred:2lev 1 2048 10 1 memory_tuned_quicksort1027573967
	sim-bpred -bpred 2lev -bpred:2lev 1 4096 10 1 memory_tuned_quicksort1027573967
	sslittle-na-sstrix-gcc -Wall -O3 -funroll-loops -finline-functions  -DRANDOM_SIZE=262144 -DOFFSET=1 -DSORT=memory_tuned_quicksort sorts/memory_tuned_quicksort2103485862.c simpleMain.c -o memory_tuned_quicksort1027573967
	sim-cache -cache:dl1 dl1:256:32:1:l -cache:dl2 dl2:131072:32:1:l -cache:il1 il1:256:32:1:l -cache:il2 dl2 memory_tuned_quicksort1027573967
	sim-cache -cache:dl1 dl1:256:32:1:l -cache:dl2 dl2:65536:32:1:l -cache:il1 il1:256:32:1:l -cache:il2 dl2 memory_tuned_quicksort1027573967
	sim-cache -cache:dl1 dl1:1:32:256:l -cache:dl2 dl2:1:32:131072:l -cache:il1 il1:1:32:256:l -cache:il2 dl2 memory_tuned_quicksort1027573967
	sim-cache -cache:dl1 dl1:1:32:256:l -cache:dl2 dl2:1:32:65536:l -cache:il1 il1:1:32:256:l -cache:il2 dl2 memory_tuned_quicksort1027573967
	sim-bpred -bpred bimod -bpred:bimod 512 memory_tuned_quicksort1027573967
	sim-bpred -bpred bimod -bpred:bimod 1024 memory_tuned_quicksort1027573967
	sim-bpred -bpred bimod -bpred:bimod 2048 memory_tuned_quicksort1027573967
	sim-bpred -bpred 2lev -bpred:2lev 1 512 10 1 memory_tuned_quicksort1027573967
	sim-bpred -bpred 2lev -bpred:2lev 1 1024 10 1 memory_tuned_quicksort1027573967
	sim-bpred -bpred 2lev -bpred:2lev 1 2048 10 1 memory_tuned_quicksort1027573967
	sim-bpred -bpred 2lev -bpred:2lev 1 4096 10 1 memory_tuned_quicksort1027573967
	sslittle-na-sstrix-gcc -Wall -O3 -funroll-loops -finline-functions  -DRANDOM_SIZE=524288 -DOFFSET=1 -DSORT=memory_tuned_quicksort sorts/memory_tuned_quicksort2103485862.c simpleMain.c -o memory_tuned_quicksort1027573967
	sim-cache -cache:dl1 dl1:256:32:1:l -cache:dl2 dl2:131072:32:1:l -cache:il1 il1:256:32:1:l -cache:il2 dl2 memory_tuned_quicksort1027573967
	sim-cache -cache:dl1 dl1:256:32:1:l -cache:dl2 dl2:65536:32:1:l -cache:il1 il1:256:32:1:l -cache:il2 dl2 memory_tuned_quicksort1027573967
	sim-cache -cache:dl1 dl1:1:32:256:l -cache:dl2 dl2:1:32:131072:l -cache:il1 il1:1:32:256:l -cache:il2 dl2 memory_tuned_quicksort1027573967
	sim-cache -cache:dl1 dl1:1:32:256:l -cache:dl2 dl2:1:32:65536:l -cache:il1 il1:1:32:256:l -cache:il2 dl2 memory_tuned_quicksort1027573967
	sim-bpred -bpred bimod -bpred:bimod 512 memory_tuned_quicksort1027573967
	sim-bpred -bpred bimod -bpred:bimod 1024 memory_tuned_quicksort1027573967
	sim-bpred -bpred bimod -bpred:bimod 2048 memory_tuned_quicksort1027573967
	sim-bpred -bpred 2lev -bpred:2lev 1 512 10 1 memory_tuned_quicksort1027573967
	sim-bpred -bpred 2lev -bpred:2lev 1 1024 10 1 memory_tuned_quicksort1027573967
	sim-bpred -bpred 2lev -bpred:2lev 1 2048 10 1 memory_tuned_quicksort1027573967
	sim-bpred -bpred 2lev -bpred:2lev 1 4096 10 1 memory_tuned_quicksort1027573967
	sslittle-na-sstrix-gcc -Wall -O3 -funroll-loops -finline-functions  -DRANDOM_SIZE=1048576 -DOFFSET=1 -DSORT=memory_tuned_quicksort sorts/memory_tuned_quicksort2103485862.c simpleMain.c -o memory_tuned_quicksort1027573967
	sim-cache -cache:dl1 dl1:256:32:1:l -cache:dl2 dl2:131072:32:1:l -cache:il1 il1:256:32:1:l -cache:il2 dl2 memory_tuned_quicksort1027573967
	sim-cache -cache:dl1 dl1:256:32:1:l -cache:dl2 dl2:65536:32:1:l -cache:il1 il1:256:32:1:l -cache:il2 dl2 memory_tuned_quicksort1027573967
	sim-cache -cache:dl1 dl1:1:32:256:l -cache:dl2 dl2:1:32:131072:l -cache:il1 il1:1:32:256:l -cache:il2 dl2 memory_tuned_quicksort1027573967
	sim-cache -cache:dl1 dl1:1:32:256:l -cache:dl2 dl2:1:32:65536:l -cache:il1 il1:1:32:256:l -cache:il2 dl2 memory_tuned_quicksort1027573967
	sim-bpred -bpred bimod -bpred:bimod 512 memory_tuned_quicksort1027573967
	sim-bpred -bpred bimod -bpred:bimod 1024 memory_tuned_quicksort1027573967
	sim-bpred -bpred bimod -bpred:bimod 2048 memory_tuned_quicksort1027573967
	sim-bpred -bpred 2lev -bpred:2lev 1 512 10 1 memory_tuned_quicksort1027573967
	sim-bpred -bpred 2lev -bpred:2lev 1 1024 10 1 memory_tuned_quicksort1027573967
	sim-bpred -bpred 2lev -bpred:2lev 1 2048 10 1 memory_tuned_quicksort1027573967
	sim-bpred -bpred 2lev -bpred:2lev 1 4096 10 1 memory_tuned_quicksort1027573967
	sslittle-na-sstrix-gcc -Wall -O3 -funroll-loops -finline-functions  -DRANDOM_SIZE=2097152 -DOFFSET=1 -DSORT=memory_tuned_quicksort sorts/memory_tuned_quicksort2103485862.c simpleMain.c -o memory_tuned_quicksort1027573967
	sim-cache -cache:dl1 dl1:256:32:1:l -cache:dl2 dl2:131072:32:1:l -cache:il1 il1:256:32:1:l -cache:il2 dl2 memory_tuned_quicksort1027573967
	sim-cache -cache:dl1 dl1:256:32:1:l -cache:dl2 dl2:65536:32:1:l -cache:il1 il1:256:32:1:l -cache:il2 dl2 memory_tuned_quicksort1027573967
	sim-cache -cache:dl1 dl1:1:32:256:l -cache:dl2 dl2:1:32:131072:l -cache:il1 il1:1:32:256:l -cache:il2 dl2 memory_tuned_quicksort1027573967
	sim-cache -cache:dl1 dl1:1:32:256:l -cache:dl2 dl2:1:32:65536:l -cache:il1 il1:1:32:256:l -cache:il2 dl2 memory_tuned_quicksort1027573967
	sim-bpred -bpred bimod -bpred:bimod 512 memory_tuned_quicksort1027573967
	sim-bpred -bpred bimod -bpred:bimod 1024 memory_tuned_quicksort1027573967
	sim-bpred -bpred bimod -bpred:bimod 2048 memory_tuned_quicksort1027573967
	sim-bpred -bpred 2lev -bpred:2lev 1 512 10 1 memory_tuned_quicksort1027573967
	sim-bpred -bpred 2lev -bpred:2lev 1 1024 10 1 memory_tuned_quicksort1027573967
	sim-bpred -bpred 2lev -bpred:2lev 1 2048 10 1 memory_tuned_quicksort1027573967
	sim-bpred -bpred 2lev -bpred:2lev 1 4096 10 1 memory_tuned_quicksort1027573967
	sslittle-na-sstrix-gcc -Wall -O3 -funroll-loops -finline-functions  -DRANDOM_SIZE=4194304 -DOFFSET=1 -DSORT=memory_tuned_quicksort sorts/memory_tuned_quicksort2103485862.c simpleMain.c -o memory_tuned_quicksort1027573967
	sim-cache -cache:dl1 dl1:256:32:1:l -cache:dl2 dl2:131072:32:1:l -cache:il1 il1:256:32:1:l -cache:il2 dl2 memory_tuned_quicksort1027573967
	sim-cache -cache:dl1 dl1:256:32:1:l -cache:dl2 dl2:65536:32:1:l -cache:il1 il1:256:32:1:l -cache:il2 dl2 memory_tuned_quicksort1027573967
	sim-cache -cache:dl1 dl1:1:32:256:l -cache:dl2 dl2:1:32:131072:l -cache:il1 il1:1:32:256:l -cache:il2 dl2 memory_tuned_quicksort1027573967
	sim-cache -cache:dl1 dl1:1:32:256:l -cache:dl2 dl2:1:32:65536:l -cache:il1 il1:1:32:256:l -cache:il2 dl2 memory_tuned_quicksort1027573967
	sim-bpred -bpred bimod -bpred:bimod 512 memory_tuned_quicksort1027573967
	sim-bpred -bpred bimod -bpred:bimod 1024 memory_tuned_quicksort1027573967
	sim-bpred -bpred bimod -bpred:bimod 2048 memory_tuned_quicksort1027573967
	sim-bpred -bpred 2lev -bpred:2lev 1 512 10 1 memory_tuned_quicksort1027573967
	sim-bpred -bpred 2lev -bpred:2lev 1 1024 10 1 memory_tuned_quicksort1027573967
	sim-bpred -bpred 2lev -bpred:2lev 1 2048 10 1 memory_tuned_quicksort1027573967
	sim-bpred -bpred 2lev -bpred:2lev 1 4096 10 1 memory_tuned_quicksort1027573967
