Wed Jul 20 15:28:58 2005
Run as: "./do_simple -c random.org6 -o 6 memory_tuned_quicksort"
-------------------------------------------------------------------------------------------------
sim-cache                                     4096 |         4096 |         4096 |         4096 |         8192 |         8192 |         8192 |         8192 |        16384 |        16384 |        16384 |        16384 |        32768 |        32768 |        32768 |        32768 |        65536 |        65536 |        65536 |        65536 |       131072 |       131072 |       131072 |       131072 |       262144 |       262144 |       262144 |       262144 |       524288 |       524288 |       524288 |       524288 |      1048576 |      1048576 |      1048576 |      1048576 |      2097152 |      2097152 |      2097152 |      2097152 |      4194304 |      4194304 |      4194304 |      4194304 |
-cache:dl1 dl1:256:32:1:l -cache:dl2 dl2:131072:32:1:l -cache:il1 il1:256:32:1:l -cache:il2 dl2
-cache:dl1 dl1:256:32:1:l -cache:dl2 dl2:65536:32:1:l -cache:il1 il1:256:32:1:l -cache:il2 dl2
-cache:dl1 dl1:1:32:256:l -cache:dl2 dl2:1:32:131072:l -cache:il1 il1:1:32:256:l -cache:il2 dl2
-cache:dl1 dl1:1:32:256:l -cache:dl2 dl2:1:32:65536:l -cache:il1 il1:1:32:256:l -cache:il2 dl2
-------------------------------------------------------------------------------------------------
sim_num_insn                                458254 |       458254 |       458254 |       458254 |       970530 |       970530 |       970530 |       970530 |      2127103 |      2127103 |      2127103 |      2127103 |      4620349 |      4620349 |      4620349 |      4620349 |     10059612 |     10059612 |     10059612 |     10059612 |     20901371 |     20901371 |     20901371 |     20901371 |     44230591 |     44230591 |     44230591 |     44230591 |     92115833 |     92115833 |     92115833 |     92115833 |    194209270 |    194209270 |    194209270 |    194209270 |    415406126 |    415406126 |    415406126 |    415406126 |    859081935 |    859081935 |    859081935 |    859081935 |
sim_num_refs                                122179 |       122179 |       122179 |       122179 |       255118 |       255118 |       255118 |       255118 |       548586 |       548586 |       548586 |       548586 |      1171998 |      1171998 |      1171998 |      1171998 |      2511782 |      2511782 |      2511782 |      2511782 |      5237553 |      5237553 |      5237553 |      5237553 |     11026565 |     11026565 |     11026565 |     11026565 |     23024689 |     23024689 |     23024689 |     23024689 |     48306516 |     48306516 |     48306516 |     48306516 |    102188612 |    102188612 |    102188612 |    102188612 |    212021180 |    212021180 |    212021180 |    212021180 |
sim_elapsed_time                                 1 |            1 |            7 |            3 |            1 |            1 |           10 |            5 |            1 |            1 |           15 |            8 |            2 |            1 |           26 |           14 |            3 |            2 |           48 |           24 |            6 |            5 |           89 |           44 |           11 |           12 |          163 |           76 |           24 |           24 |          280 |          109 |           51 |           51 |          389 |          137 |          109 |          109 |          450 |          199 |          224 |          225 |          574 |          324 |
sim_inst_rate                          458254.0000 |  458254.0000 |   65464.8571 |  152751.3333 |  970530.0000 |  970530.0000 |   97053.0000 |  194106.0000 | 2127103.0000 | 2127103.0000 |  141806.8667 |  265887.8750 | 2310174.5000 | 4620349.0000 |  177705.7308 |  330024.9286 | 3353204.0000 | 5029806.0000 |  209575.2500 |  419150.5000 | 3483561.8333 | 4180274.2000 |  234846.8652 |  475031.1591 | 4020962.8182 | 3685882.5833 |  271353.3190 |  581981.4605 | 3838159.7083 | 3838159.7083 |  328985.1179 |  845099.3853 | 3808024.9020 | 3808024.9020 |  499252.6221 | 1417585.9124 | 3811065.3761 | 3811065.3761 |  923124.7244 | 2087467.9698 | 3835187.2098 | 3818141.9333 | 1496658.4233 | 2651487.4537 |
il1.accesses                                458254 |       458254 |       458254 |       458254 |       970530 |       970530 |       970530 |       970530 |      2127103 |      2127103 |      2127103 |      2127103 |      4620349 |      4620349 |      4620349 |      4620349 |     10059612 |     10059612 |     10059612 |     10059612 |     20901371 |     20901371 |     20901371 |     20901371 |     44230591 |     44230591 |     44230591 |     44230591 |     92115833 |     92115833 |     92115833 |     92115833 |    194209270 |    194209270 |    194209270 |    194209270 |    415406126 |    415406126 |    415406126 |    415406126 |    859081935 |    859081935 |    859081935 |    859081935 |
il1.hits                                    457798 |       457798 |       457827 |       457827 |       970069 |       970069 |       970098 |       970098 |      2126632 |      2126632 |      2126668 |      2126668 |      4619896 |      4619896 |      4619924 |      4619924 |     10059153 |     10059153 |     10059180 |     10059180 |     20900919 |     20900919 |     20900947 |     20900947 |     44230135 |     44230135 |     44230162 |     44230162 |     92115377 |     92115377 |     92115404 |     92115404 |    194208814 |    194208814 |    194208841 |    194208841 |    415405668 |    415405668 |    415405695 |    415405695 |    859081479 |    859081479 |    859081506 |    859081506 |
il1.misses                                     456 |          456 |          427 |          427 |          461 |          461 |          432 |          432 |          471 |          471 |          435 |          435 |          453 |          453 |          425 |          425 |          459 |          459 |          432 |          432 |          452 |          452 |          424 |          424 |          456 |          456 |          429 |          429 |          456 |          456 |          429 |          429 |          456 |          456 |          429 |          429 |          458 |          458 |          431 |          431 |          456 |          456 |          429 |          429 |
il1.replacements                               217 |          217 |          171 |          171 |          222 |          222 |          176 |          176 |          232 |          232 |          179 |          179 |          214 |          214 |          169 |          169 |          220 |          220 |          176 |          176 |          214 |          214 |          168 |          168 |          218 |          218 |          173 |          173 |          218 |          218 |          173 |          173 |          218 |          218 |          173 |          173 |          220 |          220 |          175 |          175 |          218 |          218 |          173 |          173 |
il1.writebacks                                   0 |            0 |            0 |            0 |            0 |            0 |            0 |            0 |            0 |            0 |            0 |            0 |            0 |            0 |            0 |            0 |            0 |            0 |            0 |            0 |            0 |            0 |            0 |            0 |            0 |            0 |            0 |            0 |            0 |            0 |            0 |            0 |            0 |            0 |            0 |            0 |            0 |            0 |            0 |            0 |            0 |            0 |            0 |            0 |
il1.invalidations                                0 |            0 |            0 |            0 |            0 |            0 |            0 |            0 |            0 |            0 |            0 |            0 |            0 |            0 |            0 |            0 |            0 |            0 |            0 |            0 |            0 |            0 |            0 |            0 |            0 |            0 |            0 |            0 |            0 |            0 |            0 |            0 |            0 |            0 |            0 |            0 |            0 |            0 |            0 |            0 |            0 |            0 |            0 |            0 |
il1.miss_rate                               0.0010 |       0.0010 |       0.0009 |       0.0009 |       0.0005 |       0.0005 |       0.0004 |       0.0004 |       0.0002 |       0.0002 |       0.0002 |       0.0002 |       0.0001 |       0.0001 |       0.0001 |       0.0001 |       0.0000 |       0.0000 |       0.0000 |       0.0000 |       0.0000 |       0.0000 |       0.0000 |       0.0000 |       0.0000 |       0.0000 |       0.0000 |       0.0000 |       0.0000 |       0.0000 |       0.0000 |       0.0000 |       0.0000 |       0.0000 |       0.0000 |       0.0000 |       0.0000 |       0.0000 |       0.0000 |       0.0000 |       0.0000 |       0.0000 |       0.0000 |       0.0000 |
il1.repl_rate                               0.0005 |       0.0005 |       0.0004 |       0.0004 |       0.0002 |       0.0002 |       0.0002 |       0.0002 |       0.0001 |       0.0001 |       0.0001 |       0.0001 |       0.0000 |       0.0000 |       0.0000 |       0.0000 |       0.0000 |       0.0000 |       0.0000 |       0.0000 |       0.0000 |       0.0000 |       0.0000 |       0.0000 |       0.0000 |       0.0000 |       0.0000 |       0.0000 |       0.0000 |       0.0000 |       0.0000 |       0.0000 |       0.0000 |       0.0000 |       0.0000 |       0.0000 |       0.0000 |       0.0000 |       0.0000 |       0.0000 |       0.0000 |       0.0000 |       0.0000 |       0.0000 |
il1.wb_rate                                 0.0000 |       0.0000 |       0.0000 |       0.0000 |       0.0000 |       0.0000 |       0.0000 |       0.0000 |       0.0000 |       0.0000 |       0.0000 |       0.0000 |       0.0000 |       0.0000 |       0.0000 |       0.0000 |       0.0000 |       0.0000 |       0.0000 |       0.0000 |       0.0000 |       0.0000 |       0.0000 |       0.0000 |       0.0000 |       0.0000 |       0.0000 |       0.0000 |       0.0000 |       0.0000 |       0.0000 |       0.0000 |       0.0000 |       0.0000 |       0.0000 |       0.0000 |       0.0000 |       0.0000 |       0.0000 |       0.0000 |       0.0000 |       0.0000 |       0.0000 |       0.0000 |
il1.inv_rate                                0.0000 |       0.0000 |       0.0000 |       0.0000 |       0.0000 |       0.0000 |       0.0000 |       0.0000 |       0.0000 |       0.0000 |       0.0000 |       0.0000 |       0.0000 |       0.0000 |       0.0000 |       0.0000 |       0.0000 |       0.0000 |       0.0000 |       0.0000 |       0.0000 |       0.0000 |       0.0000 |       0.0000 |       0.0000 |       0.0000 |       0.0000 |       0.0000 |       0.0000 |       0.0000 |       0.0000 |       0.0000 |       0.0000 |       0.0000 |       0.0000 |       0.0000 |       0.0000 |       0.0000 |       0.0000 |       0.0000 |       0.0000 |       0.0000 |       0.0000 |       0.0000 |
dl1.accesses                                138645 |       138645 |       138645 |       138645 |       287968 |       287968 |       287968 |       287968 |       614204 |       614204 |       614204 |       614204 |      1303152 |      1303152 |      1303152 |      1303152 |      2774008 |      2774008 |      2774008 |      2774008 |      5761923 |      5761923 |      5761923 |      5761923 |     12075223 |     12075223 |     12075223 |     12075223 |     25121923 |     25121923 |     25121923 |     25121923 |     52500902 |     52500902 |     52500902 |     52500902 |    110577302 |    110577302 |    110577302 |    110577302 |    228798478 |    228798478 |    228798478 |    228798478 |
dl1.hits                                    136591 |       136591 |       136529 |       136529 |       283215 |       283215 |       283260 |       283260 |       602779 |       602779 |       602663 |       602663 |      1273782 |      1273782 |      1273756 |      1273756 |      2700755 |      2700755 |      2700747 |      2700747 |      5605890 |      5605890 |      5606344 |      5606344 |     11723537 |     11723537 |     11725290 |     11725290 |     24364926 |     24364926 |     24371792 |     24371792 |     50823374 |     50823374 |     50841461 |     50841461 |    106734429 |    106734429 |    106779716 |    106779716 |    220717902 |    220717902 |    220827611 |    220827611 |
dl1.misses                                    2054 |         2054 |         2116 |         2116 |         4753 |         4753 |         4708 |         4708 |        11425 |        11425 |        11541 |        11541 |        29370 |        29370 |        29396 |        29396 |        73253 |        73253 |        73261 |        73261 |       156033 |       156033 |       155579 |       155579 |       351686 |       351686 |       349933 |       349933 |       756997 |       756997 |       750131 |       750131 |      1677528 |      1677528 |      1659441 |      1659441 |      3842873 |      3842873 |      3797586 |      3797586 |      8080576 |      8080576 |      7970867 |      7970867 |
dl1.replacements                              1798 |         1798 |         1860 |         1860 |         4497 |         4497 |         4452 |         4452 |        11169 |        11169 |        11285 |        11285 |        29114 |        29114 |        29140 |        29140 |        72997 |        72997 |        73005 |        73005 |       155777 |       155777 |       155323 |       155323 |       351430 |       351430 |       349677 |       349677 |       756741 |       756741 |       749875 |       749875 |      1677272 |      1677272 |      1659185 |      1659185 |      3842617 |      3842617 |      3797330 |      3797330 |      8080320 |      8080320 |      7970611 |      7970611 |
dl1.writebacks                                1759 |         1759 |         1832 |         1832 |         4385 |         4385 |         4413 |         4413 |        10784 |        10784 |        10999 |        10999 |        26625 |        26625 |        26848 |        26848 |        63567 |        63567 |        64092 |        64092 |       142986 |       142986 |       143858 |       143858 |       321592 |       321592 |       322913 |       322913 |       702064 |       702064 |       702855 |       702855 |      1557210 |      1557210 |      1556436 |      1556436 |      3451302 |      3451302 |      3446245 |      3446245 |      7327957 |      7327957 |      7307075 |      7307075 |
dl1.invalidations                                0 |            0 |            0 |            0 |            0 |            0 |            0 |            0 |            0 |            0 |            0 |            0 |            0 |            0 |            0 |            0 |            0 |            0 |            0 |            0 |            0 |            0 |            0 |            0 |            0 |            0 |            0 |            0 |            0 |            0 |            0 |            0 |            0 |            0 |            0 |            0 |            0 |            0 |            0 |            0 |            0 |            0 |            0 |            0 |
dl1.miss_rate                               0.0148 |       0.0148 |       0.0153 |       0.0153 |       0.0165 |       0.0165 |       0.0163 |       0.0163 |       0.0186 |       0.0186 |       0.0188 |       0.0188 |       0.0225 |       0.0225 |       0.0226 |       0.0226 |       0.0264 |       0.0264 |       0.0264 |       0.0264 |       0.0271 |       0.0271 |       0.0270 |       0.0270 |       0.0291 |       0.0291 |       0.0290 |       0.0290 |       0.0301 |       0.0301 |       0.0299 |       0.0299 |       0.0320 |       0.0320 |       0.0316 |       0.0316 |       0.0348 |       0.0348 |       0.0343 |       0.0343 |       0.0353 |       0.0353 |       0.0348 |       0.0348 |
dl1.repl_rate                               0.0130 |       0.0130 |       0.0134 |       0.0134 |       0.0156 |       0.0156 |       0.0155 |       0.0155 |       0.0182 |       0.0182 |       0.0184 |       0.0184 |       0.0223 |       0.0223 |       0.0224 |       0.0224 |       0.0263 |       0.0263 |       0.0263 |       0.0263 |       0.0270 |       0.0270 |       0.0270 |       0.0270 |       0.0291 |       0.0291 |       0.0290 |       0.0290 |       0.0301 |       0.0301 |       0.0298 |       0.0298 |       0.0319 |       0.0319 |       0.0316 |       0.0316 |       0.0348 |       0.0348 |       0.0343 |       0.0343 |       0.0353 |       0.0353 |       0.0348 |       0.0348 |
dl1.wb_rate                                 0.0127 |       0.0127 |       0.0132 |       0.0132 |       0.0152 |       0.0152 |       0.0153 |       0.0153 |       0.0176 |       0.0176 |       0.0179 |       0.0179 |       0.0204 |       0.0204 |       0.0206 |       0.0206 |       0.0229 |       0.0229 |       0.0231 |       0.0231 |       0.0248 |       0.0248 |       0.0250 |       0.0250 |       0.0266 |       0.0266 |       0.0267 |       0.0267 |       0.0279 |       0.0279 |       0.0280 |       0.0280 |       0.0297 |       0.0297 |       0.0296 |       0.0296 |       0.0312 |       0.0312 |       0.0312 |       0.0312 |       0.0320 |       0.0320 |       0.0319 |       0.0319 |
dl1.inv_rate                                0.0000 |       0.0000 |       0.0000 |       0.0000 |       0.0000 |       0.0000 |       0.0000 |       0.0000 |       0.0000 |       0.0000 |       0.0000 |       0.0000 |       0.0000 |       0.0000 |       0.0000 |       0.0000 |       0.0000 |       0.0000 |       0.0000 |       0.0000 |       0.0000 |       0.0000 |       0.0000 |       0.0000 |       0.0000 |       0.0000 |       0.0000 |       0.0000 |       0.0000 |       0.0000 |       0.0000 |       0.0000 |       0.0000 |       0.0000 |       0.0000 |       0.0000 |       0.0000 |       0.0000 |       0.0000 |       0.0000 |       0.0000 |       0.0000 |       0.0000 |       0.0000 |
dl2.accesses                                  4269 |         4269 |         4375 |         4375 |         9599 |         9599 |         9553 |         9553 |        22680 |        22680 |        22975 |        22975 |        56448 |        56448 |        56669 |        56669 |       137279 |       137279 |       137785 |       137785 |       299471 |       299471 |       299861 |       299861 |       673734 |       673734 |       673275 |       673275 |      1459517 |      1459517 |      1453415 |      1453415 |      3235194 |      3235194 |      3216306 |      3216306 |      7294633 |      7294633 |      7244262 |      7244262 |     15408989 |     15408989 |     15278371 |     15278371 |
dl2.hits                                      2894 |         2894 |         3015 |         3015 |         7709 |         7709 |         7676 |         7676 |        19769 |        19769 |        20081 |        20081 |        51501 |        51501 |        51734 |        51734 |       128230 |       128230 |       128748 |       128748 |       282236 |       282236 |       282638 |       282638 |       640111 |       640111 |       639664 |       639664 |      1393126 |      1392462 |      1387036 |      1350694 |      3102602 |      2866517 |      2971806 |      2793253 |      6449691 |      6017081 |      6239513 |      5892806 |     13382638 |     12700306 |     12981430 |     12397266 |
dl2.misses                                    1375 |         1375 |         1360 |         1360 |         1890 |         1890 |         1877 |         1877 |         2911 |         2911 |         2894 |         2894 |         4947 |         4947 |         4935 |         4935 |         9049 |         9049 |         9037 |         9037 |        17235 |        17235 |        17223 |        17223 |        33623 |        33623 |        33611 |        33611 |        66391 |        67055 |        66379 |       102721 |       132592 |       368677 |       244500 |       423053 |       844942 |      1277552 |      1004749 |      1351456 |      2026351 |      2708683 |      2296941 |      2881105 |
dl2.replacements                               147 |          147 |            0 |            0 |          146 |          146 |            0 |            0 |          150 |          150 |            0 |            0 |          145 |          145 |            0 |            0 |          145 |          145 |            0 |            0 |          145 |          145 |            0 |            0 |          145 |          145 |            0 |            0 |          145 |         1519 |            0 |        37185 |         1520 |       303141 |       113428 |       357517 |       713870 |      1212016 |       873677 |      1285920 |      1895279 |      2643147 |      2165869 |      2815569 |
dl2.writebacks                                  82 |           82 |            0 |            0 |           83 |           83 |            0 |            0 |           85 |           85 |            0 |            0 |           84 |           84 |            0 |            0 |           84 |           84 |            0 |            0 |           84 |           84 |            0 |            0 |           84 |           84 |            0 |            0 |           84 |         1266 |            0 |        36962 |         1278 |       295426 |       113205 |       344276 |       644584 |      1069714 |       758764 |      1135819 |      1842153 |      2468015 |      2028590 |      2633551 |
dl2.invalidations                                0 |            0 |            0 |            0 |            0 |            0 |            0 |            0 |            0 |            0 |            0 |            0 |            0 |            0 |            0 |            0 |            0 |            0 |            0 |            0 |            0 |            0 |            0 |            0 |            0 |            0 |            0 |            0 |            0 |            0 |            0 |            0 |            0 |            0 |            0 |            0 |            0 |            0 |            0 |            0 |            0 |            0 |            0 |            0 |
dl2.miss_rate                               0.3221 |       0.3221 |       0.3109 |       0.3109 |       0.1969 |       0.1969 |       0.1965 |       0.1965 |       0.1284 |       0.1284 |       0.1260 |       0.1260 |       0.0876 |       0.0876 |       0.0871 |       0.0871 |       0.0659 |       0.0659 |       0.0656 |       0.0656 |       0.0576 |       0.0576 |       0.0574 |       0.0574 |       0.0499 |       0.0499 |       0.0499 |       0.0499 |       0.0455 |       0.0459 |       0.0457 |       0.0707 |       0.0410 |       0.1140 |       0.0760 |       0.1315 |       0.1158 |       0.1751 |       0.1387 |       0.1866 |       0.1315 |       0.1758 |       0.1503 |       0.1886 |
dl2.repl_rate                               0.0344 |       0.0344 |       0.0000 |       0.0000 |       0.0152 |       0.0152 |       0.0000 |       0.0000 |       0.0066 |       0.0066 |       0.0000 |       0.0000 |       0.0026 |       0.0026 |       0.0000 |       0.0000 |       0.0011 |       0.0011 |       0.0000 |       0.0000 |       0.0005 |       0.0005 |       0.0000 |       0.0000 |       0.0002 |       0.0002 |       0.0000 |       0.0000 |       0.0001 |       0.0010 |       0.0000 |       0.0256 |       0.0005 |       0.0937 |       0.0353 |       0.1112 |       0.0979 |       0.1662 |       0.1206 |       0.1775 |       0.1230 |       0.1715 |       0.1418 |       0.1843 |
dl2.wb_rate                                 0.0192 |       0.0192 |       0.0000 |       0.0000 |       0.0086 |       0.0086 |       0.0000 |       0.0000 |       0.0037 |       0.0037 |       0.0000 |       0.0000 |       0.0015 |       0.0015 |       0.0000 |       0.0000 |       0.0006 |       0.0006 |       0.0000 |       0.0000 |       0.0003 |       0.0003 |       0.0000 |       0.0000 |       0.0001 |       0.0001 |       0.0000 |       0.0000 |       0.0001 |       0.0009 |       0.0000 |       0.0254 |       0.0004 |       0.0913 |       0.0352 |       0.1070 |       0.0884 |       0.1466 |       0.1047 |       0.1568 |       0.1196 |       0.1602 |       0.1328 |       0.1724 |
dl2.inv_rate                                0.0000 |       0.0000 |       0.0000 |       0.0000 |       0.0000 |       0.0000 |       0.0000 |       0.0000 |       0.0000 |       0.0000 |       0.0000 |       0.0000 |       0.0000 |       0.0000 |       0.0000 |       0.0000 |       0.0000 |       0.0000 |       0.0000 |       0.0000 |       0.0000 |       0.0000 |       0.0000 |       0.0000 |       0.0000 |       0.0000 |       0.0000 |       0.0000 |       0.0000 |       0.0000 |       0.0000 |       0.0000 |       0.0000 |       0.0000 |       0.0000 |       0.0000 |       0.0000 |       0.0000 |       0.0000 |       0.0000 |       0.0000 |       0.0000 |       0.0000 |       0.0000 |
itlb.accesses                               458254 |       458254 |       458254 |       458254 |       970530 |       970530 |       970530 |       970530 |      2127103 |      2127103 |      2127103 |      2127103 |      4620349 |      4620349 |      4620349 |      4620349 |     10059612 |     10059612 |     10059612 |     10059612 |     20901371 |     20901371 |     20901371 |     20901371 |     44230591 |     44230591 |     44230591 |     44230591 |     92115833 |     92115833 |     92115833 |     92115833 |    194209270 |    194209270 |    194209270 |    194209270 |    415406126 |    415406126 |    415406126 |    415406126 |    859081935 |    859081935 |    859081935 |    859081935 |
itlb.hits                                   458243 |       458243 |       458243 |       458243 |       970519 |       970519 |       970519 |       970519 |      2127092 |      2127092 |      2127092 |      2127092 |      4620339 |      4620339 |      4620339 |      4620339 |     10059602 |     10059602 |     10059602 |     10059602 |     20901361 |     20901361 |     20901361 |     20901361 |     44230581 |     44230581 |     44230581 |     44230581 |     92115823 |     92115823 |     92115823 |     92115823 |    194209260 |    194209260 |    194209260 |    194209260 |    415406116 |    415406116 |    415406116 |    415406116 |    859081925 |    859081925 |    859081925 |    859081925 |
itlb.misses                                     11 |           11 |           11 |           11 |           11 |           11 |           11 |           11 |           11 |           11 |           11 |           11 |           10 |           10 |           10 |           10 |           10 |           10 |           10 |           10 |           10 |           10 |           10 |           10 |           10 |           10 |           10 |           10 |           10 |           10 |           10 |           10 |           10 |           10 |           10 |           10 |           10 |           10 |           10 |           10 |           10 |           10 |           10 |           10 |
itlb.replacements                                0 |            0 |            0 |            0 |            0 |            0 |            0 |            0 |            0 |            0 |            0 |            0 |            0 |            0 |            0 |            0 |            0 |            0 |            0 |            0 |            0 |            0 |            0 |            0 |            0 |            0 |            0 |            0 |            0 |            0 |            0 |            0 |            0 |            0 |            0 |            0 |            0 |            0 |            0 |            0 |            0 |            0 |            0 |            0 |
itlb.writebacks                                  0 |            0 |            0 |            0 |            0 |            0 |            0 |            0 |            0 |            0 |            0 |            0 |            0 |            0 |            0 |            0 |            0 |            0 |            0 |            0 |            0 |            0 |            0 |            0 |            0 |            0 |            0 |            0 |            0 |            0 |            0 |            0 |            0 |            0 |            0 |            0 |            0 |            0 |            0 |            0 |            0 |            0 |            0 |            0 |
itlb.invalidations                               0 |            0 |            0 |            0 |            0 |            0 |            0 |            0 |            0 |            0 |            0 |            0 |            0 |            0 |            0 |            0 |            0 |            0 |            0 |            0 |            0 |            0 |            0 |            0 |            0 |            0 |            0 |            0 |            0 |            0 |            0 |            0 |            0 |            0 |            0 |            0 |            0 |            0 |            0 |            0 |            0 |            0 |            0 |            0 |
itlb.miss_rate                              0.0000 |       0.0000 |       0.0000 |       0.0000 |       0.0000 |       0.0000 |       0.0000 |       0.0000 |       0.0000 |       0.0000 |       0.0000 |       0.0000 |       0.0000 |       0.0000 |       0.0000 |       0.0000 |       0.0000 |       0.0000 |       0.0000 |       0.0000 |       0.0000 |       0.0000 |       0.0000 |       0.0000 |       0.0000 |       0.0000 |       0.0000 |       0.0000 |       0.0000 |       0.0000 |       0.0000 |       0.0000 |       0.0000 |       0.0000 |       0.0000 |       0.0000 |       0.0000 |       0.0000 |       0.0000 |       0.0000 |       0.0000 |       0.0000 |       0.0000 |       0.0000 |
itlb.repl_rate                              0.0000 |       0.0000 |       0.0000 |       0.0000 |       0.0000 |       0.0000 |       0.0000 |       0.0000 |       0.0000 |       0.0000 |       0.0000 |       0.0000 |       0.0000 |       0.0000 |       0.0000 |       0.0000 |       0.0000 |       0.0000 |       0.0000 |       0.0000 |       0.0000 |       0.0000 |       0.0000 |       0.0000 |       0.0000 |       0.0000 |       0.0000 |       0.0000 |       0.0000 |       0.0000 |       0.0000 |       0.0000 |       0.0000 |       0.0000 |       0.0000 |       0.0000 |       0.0000 |       0.0000 |       0.0000 |       0.0000 |       0.0000 |       0.0000 |       0.0000 |       0.0000 |
itlb.wb_rate                                0.0000 |       0.0000 |       0.0000 |       0.0000 |       0.0000 |       0.0000 |       0.0000 |       0.0000 |       0.0000 |       0.0000 |       0.0000 |       0.0000 |       0.0000 |       0.0000 |       0.0000 |       0.0000 |       0.0000 |       0.0000 |       0.0000 |       0.0000 |       0.0000 |       0.0000 |       0.0000 |       0.0000 |       0.0000 |       0.0000 |       0.0000 |       0.0000 |       0.0000 |       0.0000 |       0.0000 |       0.0000 |       0.0000 |       0.0000 |       0.0000 |       0.0000 |       0.0000 |       0.0000 |       0.0000 |       0.0000 |       0.0000 |       0.0000 |       0.0000 |       0.0000 |
itlb.inv_rate                               0.0000 |       0.0000 |       0.0000 |       0.0000 |       0.0000 |       0.0000 |       0.0000 |       0.0000 |       0.0000 |       0.0000 |       0.0000 |       0.0000 |       0.0000 |       0.0000 |       0.0000 |       0.0000 |       0.0000 |       0.0000 |       0.0000 |       0.0000 |       0.0000 |       0.0000 |       0.0000 |       0.0000 |       0.0000 |       0.0000 |       0.0000 |       0.0000 |       0.0000 |       0.0000 |       0.0000 |       0.0000 |       0.0000 |       0.0000 |       0.0000 |       0.0000 |       0.0000 |       0.0000 |       0.0000 |       0.0000 |       0.0000 |       0.0000 |       0.0000 |       0.0000 |
dtlb.accesses                               138645 |       138645 |       138645 |       138645 |       287968 |       287968 |       287968 |       287968 |       614204 |       614204 |       614204 |       614204 |      1303152 |      1303152 |      1303152 |      1303152 |      2774008 |      2774008 |      2774008 |      2774008 |      5761923 |      5761923 |      5761923 |      5761923 |     12075223 |     12075223 |     12075223 |     12075223 |     25121923 |     25121923 |     25121923 |     25121923 |     52500902 |     52500902 |     52500902 |     52500902 |    110577302 |    110577302 |    110577302 |    110577302 |    228798478 |    228798478 |    228798478 |    228798478 |
dtlb.hits                                   138633 |       138633 |       138633 |       138633 |       287952 |       287952 |       287952 |       287952 |       614180 |       614180 |       614180 |       614180 |      1303112 |      1303112 |      1303112 |      1303112 |      2773936 |      2773936 |      2773936 |      2773936 |      5761762 |      5761762 |      5761762 |      5761762 |     12074402 |     12074402 |     12074402 |     12074402 |     25119780 |     25119780 |     25119780 |     25119780 |     52495239 |     52495239 |     52495239 |     52495239 |    110562211 |    110562211 |    110562211 |    110562211 |    228765737 |    228765737 |    228765737 |    228765737 |
dtlb.misses                                     12 |           12 |           12 |           12 |           16 |           16 |           16 |           16 |           24 |           24 |           24 |           24 |           40 |           40 |           40 |           40 |           72 |           72 |           72 |           72 |          161 |          161 |          161 |          161 |          821 |          821 |          821 |          821 |         2143 |         2143 |         2143 |         2143 |         5663 |         5663 |         5663 |         5663 |        15091 |        15091 |        15091 |        15091 |        32741 |        32741 |        32741 |        32741 |
dtlb.replacements                                0 |            0 |            0 |            0 |            0 |            0 |            0 |            0 |            0 |            0 |            0 |            0 |            0 |            0 |            0 |            0 |            0 |            0 |            0 |            0 |           33 |           33 |           33 |           33 |          693 |          693 |          693 |          693 |         2015 |         2015 |         2015 |         2015 |         5535 |         5535 |         5535 |         5535 |        14963 |        14963 |        14963 |        14963 |        32613 |        32613 |        32613 |        32613 |
dtlb.writebacks                                  0 |            0 |            0 |            0 |            0 |            0 |            0 |            0 |            0 |            0 |            0 |            0 |            0 |            0 |            0 |            0 |            0 |            0 |            0 |            0 |           31 |           31 |           31 |           31 |          691 |          691 |          691 |          691 |         2013 |         2013 |         2013 |         2013 |         5533 |         5533 |         5533 |         5533 |        14961 |        14961 |        14961 |        14961 |        32611 |        32611 |        32611 |        32611 |
dtlb.invalidations                               0 |            0 |            0 |            0 |            0 |            0 |            0 |            0 |            0 |            0 |            0 |            0 |            0 |            0 |            0 |            0 |            0 |            0 |            0 |            0 |            0 |            0 |            0 |            0 |            0 |            0 |            0 |            0 |            0 |            0 |            0 |            0 |            0 |            0 |            0 |            0 |            0 |            0 |            0 |            0 |            0 |            0 |            0 |            0 |
dtlb.miss_rate                              0.0001 |       0.0001 |       0.0001 |       0.0001 |       0.0001 |       0.0001 |       0.0001 |       0.0001 |       0.0000 |       0.0000 |       0.0000 |       0.0000 |       0.0000 |       0.0000 |       0.0000 |       0.0000 |       0.0000 |       0.0000 |       0.0000 |       0.0000 |       0.0000 |       0.0000 |       0.0000 |       0.0000 |       0.0001 |       0.0001 |       0.0001 |       0.0001 |       0.0001 |       0.0001 |       0.0001 |       0.0001 |       0.0001 |       0.0001 |       0.0001 |       0.0001 |       0.0001 |       0.0001 |       0.0001 |       0.0001 |       0.0001 |       0.0001 |       0.0001 |       0.0001 |
dtlb.repl_rate                              0.0000 |       0.0000 |       0.0000 |       0.0000 |       0.0000 |       0.0000 |       0.0000 |       0.0000 |       0.0000 |       0.0000 |       0.0000 |       0.0000 |       0.0000 |       0.0000 |       0.0000 |       0.0000 |       0.0000 |       0.0000 |       0.0000 |       0.0000 |       0.0000 |       0.0000 |       0.0000 |       0.0000 |       0.0001 |       0.0001 |       0.0001 |       0.0001 |       0.0001 |       0.0001 |       0.0001 |       0.0001 |       0.0001 |       0.0001 |       0.0001 |       0.0001 |       0.0001 |       0.0001 |       0.0001 |       0.0001 |       0.0001 |       0.0001 |       0.0001 |       0.0001 |
dtlb.wb_rate                                0.0000 |       0.0000 |       0.0000 |       0.0000 |       0.0000 |       0.0000 |       0.0000 |       0.0000 |       0.0000 |       0.0000 |       0.0000 |       0.0000 |       0.0000 |       0.0000 |       0.0000 |       0.0000 |       0.0000 |       0.0000 |       0.0000 |       0.0000 |       0.0000 |       0.0000 |       0.0000 |       0.0000 |       0.0001 |       0.0001 |       0.0001 |       0.0001 |       0.0001 |       0.0001 |       0.0001 |       0.0001 |       0.0001 |       0.0001 |       0.0001 |       0.0001 |       0.0001 |       0.0001 |       0.0001 |       0.0001 |       0.0001 |       0.0001 |       0.0001 |       0.0001 |
dtlb.inv_rate                               0.0000 |       0.0000 |       0.0000 |       0.0000 |       0.0000 |       0.0000 |       0.0000 |       0.0000 |       0.0000 |       0.0000 |       0.0000 |       0.0000 |       0.0000 |       0.0000 |       0.0000 |       0.0000 |       0.0000 |       0.0000 |       0.0000 |       0.0000 |       0.0000 |       0.0000 |       0.0000 |       0.0000 |       0.0000 |       0.0000 |       0.0000 |       0.0000 |       0.0000 |       0.0000 |       0.0000 |       0.0000 |       0.0000 |       0.0000 |       0.0000 |       0.0000 |       0.0000 |       0.0000 |       0.0000 |       0.0000 |       0.0000 |       0.0000 |       0.0000 |       0.0000 |
ld_text_base                            0x00400000 |   0x00400000 |   0x00400000 |   0x00400000 |   0x00400000 |   0x00400000 |   0x00400000 |   0x00400000 |   0x00400000 |   0x00400000 |   0x00400000 |   0x00400000 |   0x00400000 |   0x00400000 |   0x00400000 |   0x00400000 |   0x00400000 |   0x00400000 |   0x00400000 |   0x00400000 |   0x00400000 |   0x00400000 |   0x00400000 |   0x00400000 |   0x00400000 |   0x00400000 |   0x00400000 |   0x00400000 |   0x00400000 |   0x00400000 |   0x00400000 |   0x00400000 |   0x00400000 |   0x00400000 |   0x00400000 |   0x00400000 |   0x00400000 |   0x00400000 |   0x00400000 |   0x00400000 |   0x00400000 |   0x00400000 |   0x00400000 |   0x00400000 |
ld_text_size                                 73104 |        73104 |        73104 |        73104 |        73136 |        73136 |        73136 |        73136 |        73152 |        73152 |        73152 |        73152 |        73168 |        73168 |        73168 |        73168 |        73168 |        73168 |        73168 |        73168 |        73168 |        73168 |        73168 |        73168 |        73168 |        73168 |        73168 |        73168 |        73168 |        73168 |        73168 |        73168 |        73168 |        73168 |        73168 |        73168 |        73168 |        73168 |        73168 |        73168 |        73168 |        73168 |        73168 |        73168 |
ld_data_base                            0x10000000 |   0x10000000 |   0x10000000 |   0x10000000 |   0x10000000 |   0x10000000 |   0x10000000 |   0x10000000 |   0x10000000 |   0x10000000 |   0x10000000 |   0x10000000 |   0x10000000 |   0x10000000 |   0x10000000 |   0x10000000 |   0x10000000 |   0x10000000 |   0x10000000 |   0x10000000 |   0x10000000 |   0x10000000 |   0x10000000 |   0x10000000 |   0x10000000 |   0x10000000 |   0x10000000 |   0x10000000 |   0x10000000 |   0x10000000 |   0x10000000 |   0x10000000 |   0x10000000 |   0x10000000 |   0x10000000 |   0x10000000 |   0x10000000 |   0x10000000 |   0x10000000 |   0x10000000 |   0x10000000 |   0x10000000 |   0x10000000 |   0x10000000 |
ld_data_size                                  8192 |         8192 |         8192 |         8192 |         8192 |         8192 |         8192 |         8192 |         8192 |         8192 |         8192 |         8192 |         8192 |         8192 |         8192 |         8192 |         8192 |         8192 |         8192 |         8192 |         8192 |         8192 |         8192 |         8192 |         8192 |         8192 |         8192 |         8192 |         8192 |         8192 |         8192 |         8192 |         8192 |         8192 |         8192 |         8192 |         8192 |         8192 |         8192 |         8192 |         8192 |         8192 |         8192 |         8192 |
ld_stack_base                           0x7fffc000 |   0x7fffc000 |   0x7fffc000 |   0x7fffc000 |   0x7fffc000 |   0x7fffc000 |   0x7fffc000 |   0x7fffc000 |   0x7fffc000 |   0x7fffc000 |   0x7fffc000 |   0x7fffc000 |   0x7fffc000 |   0x7fffc000 |   0x7fffc000 |   0x7fffc000 |   0x7fffc000 |   0x7fffc000 |   0x7fffc000 |   0x7fffc000 |   0x7fffc000 |   0x7fffc000 |   0x7fffc000 |   0x7fffc000 |   0x7fffc000 |   0x7fffc000 |   0x7fffc000 |   0x7fffc000 |   0x7fffc000 |   0x7fffc000 |   0x7fffc000 |   0x7fffc000 |   0x7fffc000 |   0x7fffc000 |   0x7fffc000 |   0x7fffc000 |   0x7fffc000 |   0x7fffc000 |   0x7fffc000 |   0x7fffc000 |   0x7fffc000 |   0x7fffc000 |   0x7fffc000 |   0x7fffc000 |
ld_stack_size                                16384 |        16384 |        16384 |        16384 |        16384 |        16384 |        16384 |        16384 |        16384 |        16384 |        16384 |        16384 |        16384 |        16384 |        16384 |        16384 |        16384 |        16384 |        16384 |        16384 |        16384 |        16384 |        16384 |        16384 |        16384 |        16384 |        16384 |        16384 |        16384 |        16384 |        16384 |        16384 |        16384 |        16384 |        16384 |        16384 |        16384 |        16384 |        16384 |        16384 |        16384 |        16384 |        16384 |        16384 |
ld_prog_entry                           0x00400140 |   0x00400140 |   0x00400140 |   0x00400140 |   0x00400140 |   0x00400140 |   0x00400140 |   0x00400140 |   0x00400140 |   0x00400140 |   0x00400140 |   0x00400140 |   0x00400140 |   0x00400140 |   0x00400140 |   0x00400140 |   0x00400140 |   0x00400140 |   0x00400140 |   0x00400140 |   0x00400140 |   0x00400140 |   0x00400140 |   0x00400140 |   0x00400140 |   0x00400140 |   0x00400140 |   0x00400140 |   0x00400140 |   0x00400140 |   0x00400140 |   0x00400140 |   0x00400140 |   0x00400140 |   0x00400140 |   0x00400140 |   0x00400140 |   0x00400140 |   0x00400140 |   0x00400140 |   0x00400140 |   0x00400140 |   0x00400140 |   0x00400140 |
ld_environ_base                         0x7fff8000 |   0x7fff8000 |   0x7fff8000 |   0x7fff8000 |   0x7fff8000 |   0x7fff8000 |   0x7fff8000 |   0x7fff8000 |   0x7fff8000 |   0x7fff8000 |   0x7fff8000 |   0x7fff8000 |   0x7fff8000 |   0x7fff8000 |   0x7fff8000 |   0x7fff8000 |   0x7fff8000 |   0x7fff8000 |   0x7fff8000 |   0x7fff8000 |   0x7fff8000 |   0x7fff8000 |   0x7fff8000 |   0x7fff8000 |   0x7fff8000 |   0x7fff8000 |   0x7fff8000 |   0x7fff8000 |   0x7fff8000 |   0x7fff8000 |   0x7fff8000 |   0x7fff8000 |   0x7fff8000 |   0x7fff8000 |   0x7fff8000 |   0x7fff8000 |   0x7fff8000 |   0x7fff8000 |   0x7fff8000 |   0x7fff8000 |   0x7fff8000 |   0x7fff8000 |   0x7fff8000 |   0x7fff8000 |
ld_target_big_endian                             0 |            0 |            0 |            0 |            0 |            0 |            0 |            0 |            0 |            0 |            0 |            0 |            0 |            0 |            0 |            0 |            0 |            0 |            0 |            0 |            0 |            0 |            0 |            0 |            0 |            0 |            0 |            0 |            0 |            0 |            0 |            0 |            0 |            0 |            0 |            0 |            0 |            0 |            0 |            0 |            0 |            0 |            0 |            0 |
mem.page_count                                  30 |           30 |           30 |           30 |           34 |           34 |           34 |           34 |           42 |           42 |           42 |           42 |           58 |           58 |           58 |           58 |           90 |           90 |           90 |           90 |          154 |          154 |          154 |          154 |          282 |          282 |          282 |          282 |          538 |          538 |          538 |          538 |         1050 |         1050 |         1050 |         1050 |         2074 |         2074 |         2074 |         2074 |         4122 |         4122 |         4122 |         4122 |
mem.page_mem                                  120k |         120k |         120k |         120k |         136k |         136k |         136k |         136k |         168k |         168k |         168k |         168k |         232k |         232k |         232k |         232k |         360k |         360k |         360k |         360k |         616k |         616k |         616k |         616k |        1128k |        1128k |        1128k |        1128k |        2152k |        2152k |        2152k |        2152k |        4200k |        4200k |        4200k |        4200k |        8296k |        8296k |        8296k |        8296k |       16488k |       16488k |       16488k |       16488k |
mem.ptab_misses                                 30 |           30 |           30 |           30 |           34 |           34 |           34 |           34 |           42 |           42 |           42 |           42 |           58 |           58 |           58 |           58 |           90 |           90 |           90 |           90 |          154 |          154 |          154 |          154 |          282 |          282 |          282 |          282 |          538 |          538 |          538 |          538 |         1050 |         1050 |         1050 |         1050 |         2074 |         2074 |         2074 |         2074 |         4122 |         4122 |         4122 |         4122 |
mem.ptab_accesses                          2563540 |      2563540 |      2563540 |      2563540 |      4911482 |      4911482 |      4911482 |      4911482 |     10190342 |     10190342 |     10190342 |     10190342 |     21541318 |     21541318 |     21541318 |     21541318 |     46240082 |     46240082 |     46240082 |     46240082 |     95582948 |     95582948 |     95582948 |     95582948 |    201526428 |    201526428 |    201526428 |    201526428 |    419160796 |    419160796 |    419160796 |    419160796 |    882292502 |    882292502 |    882292502 |    882292502 |   1883232726 |   1883232726 |   1883232726 |   1883232726 |   3894378314 |   3894378314 |   3894378314 |   3894378314 |
mem.ptab_miss_rate                          0.0000 |       0.0000 |       0.0000 |       0.0000 |       0.0000 |       0.0000 |       0.0000 |       0.0000 |       0.0000 |       0.0000 |       0.0000 |       0.0000 |       0.0000 |       0.0000 |       0.0000 |       0.0000 |       0.0000 |       0.0000 |       0.0000 |       0.0000 |       0.0000 |       0.0000 |       0.0000 |       0.0000 |       0.0000 |       0.0000 |       0.0000 |       0.0000 |       0.0000 |       0.0000 |       0.0000 |       0.0000 |       0.0000 |       0.0000 |       0.0000 |       0.0000 |       0.0000 |       0.0000 |       0.0000 |       0.0000 |       0.0000 |       0.0000 |       0.0000 |       0.0000 |
-------------------------------------------------------------------------------------------------
sim-bpred                                     4096 |         4096 |         4096 |         4096 |         4096 |         4096 |         4096 |         8192 |         8192 |         8192 |         8192 |         8192 |         8192 |         8192 |        16384 |        16384 |        16384 |        16384 |        16384 |        16384 |        16384 |        32768 |        32768 |        32768 |        32768 |        32768 |        32768 |        32768 |        65536 |        65536 |        65536 |        65536 |        65536 |        65536 |        65536 |       131072 |       131072 |       131072 |       131072 |       131072 |       131072 |       131072 |       262144 |       262144 |       262144 |       262144 |       262144 |       262144 |       262144 |       524288 |       524288 |       524288 |       524288 |       524288 |       524288 |       524288 |      1048576 |      1048576 |      1048576 |      1048576 |      1048576 |      1048576 |      1048576 |      2097152 |      2097152 |      2097152 |      2097152 |      2097152 |      2097152 |      2097152 |      4194304 |      4194304 |      4194304 |      4194304 |      4194304 |      4194304 |      4194304 |
-bpred bimod -bpred:bimod 512
-bpred bimod -bpred:bimod 1024
-bpred bimod -bpred:bimod 2048
-bpred 2lev -bpred:2lev 1 512 10 1
-bpred 2lev -bpred:2lev 1 1024 10 1
-bpred 2lev -bpred:2lev 1 2048 10 1
-bpred 2lev -bpred:2lev 1 4096 10 1
-------------------------------------------------------------------------------------------------
sim_num_insn                                458254 |       458254 |       458254 |       458254 |       458254 |       458254 |       458254 |       970530 |       970530 |       970530 |       970530 |       970530 |       970530 |       970530 |      2127103 |      2127103 |      2127103 |      2127103 |      2127103 |      2127103 |      2127103 |      4620349 |      4620349 |      4620349 |      4620349 |      4620349 |      4620349 |      4620349 |     10059612 |     10059612 |     10059612 |     10059612 |     10059612 |     10059612 |     10059612 |     20901371 |     20901371 |     20901371 |     20901371 |     20901371 |     20901371 |     20901371 |     44230591 |     44230591 |     44230591 |     44230591 |     44230591 |     44230591 |     44230591 |     92115833 |     92115833 |     92115833 |     92115833 |     92115833 |     92115833 |     92115833 |    194209270 |    194209270 |    194209270 |    194209270 |    194209270 |    194209270 |    194209270 |    415406126 |    415406126 |    415406126 |    415406126 |    415406126 |    415406126 |    415406126 |    859081935 |    859081935 |    859081935 |    859081935 |    859081935 |    859081935 |    859081935 |
sim_num_refs                                122179 |       122179 |       122179 |       122179 |       122179 |       122179 |       122179 |       255118 |       255118 |       255118 |       255118 |       255118 |       255118 |       255118 |       548586 |       548586 |       548586 |       548586 |       548586 |       548586 |       548586 |      1171998 |      1171998 |      1171998 |      1171998 |      1171998 |      1171998 |      1171998 |      2511782 |      2511782 |      2511782 |      2511782 |      2511782 |      2511782 |      2511782 |      5237553 |      5237553 |      5237553 |      5237553 |      5237553 |      5237553 |      5237553 |     11026565 |     11026565 |     11026565 |     11026565 |     11026565 |     11026565 |     11026565 |     23024689 |     23024689 |     23024689 |     23024689 |     23024689 |     23024689 |     23024689 |     48306516 |     48306516 |     48306516 |     48306516 |     48306516 |     48306516 |     48306516 |    102188612 |    102188612 |    102188612 |    102188612 |    102188612 |    102188612 |    102188612 |    212021180 |    212021180 |    212021180 |    212021180 |    212021180 |    212021180 |    212021180 |
sim_elapsed_time                                 1 |            1 |            1 |            1 |            1 |            1 |            1 |            1 |            1 |            1 |            1 |            1 |            1 |            1 |            1 |            1 |            1 |            1 |            1 |            1 |            1 |            1 |            1 |            1 |            1 |            1 |            1 |            1 |            1 |            2 |            1 |            1 |            1 |            2 |            1 |            2 |            3 |            2 |            3 |            2 |            2 |            3 |            5 |            5 |            5 |            5 |            6 |            5 |            6 |           11 |           11 |           11 |           11 |           11 |           11 |           11 |           24 |           23 |           23 |           23 |           24 |           24 |           23 |           50 |           49 |           49 |           51 |           50 |           50 |           50 |          102 |          103 |          102 |          104 |          104 |          104 |          104 |
sim_inst_rate                          458254.0000 |  458254.0000 |  458254.0000 |  458254.0000 |  458254.0000 |  458254.0000 |  458254.0000 |  970530.0000 |  970530.0000 |  970530.0000 |  970530.0000 |  970530.0000 |  970530.0000 |  970530.0000 | 2127103.0000 | 2127103.0000 | 2127103.0000 | 2127103.0000 | 2127103.0000 | 2127103.0000 | 2127103.0000 | 4620349.0000 | 4620349.0000 | 4620349.0000 | 4620349.0000 | 4620349.0000 | 4620349.0000 | 4620349.0000 |10059612.0000 | 5029806.0000 |10059612.0000 |10059612.0000 |10059612.0000 | 5029806.0000 |10059612.0000 |10450685.5000 | 6967123.6667 |10450685.5000 | 6967123.6667 |10450685.5000 |10450685.5000 | 6967123.6667 | 8846118.2000 | 8846118.2000 | 8846118.2000 | 8846118.2000 | 7371765.1667 | 8846118.2000 | 7371765.1667 | 8374166.6364 | 8374166.6364 | 8374166.6364 | 8374166.6364 | 8374166.6364 | 8374166.6364 | 8374166.6364 | 8092052.9167 | 8443881.3043 | 8443881.3043 | 8443881.3043 | 8092052.9167 | 8092052.9167 | 8443881.3043 | 8308122.5200 | 8477676.0408 | 8477676.0408 | 8145218.1569 | 8308122.5200 | 8308122.5200 | 8308122.5200 | 8422371.9118 | 8340601.3107 | 8422371.9118 | 8260403.2212 | 8260403.2212 | 8260403.2212 | 8260403.2212 |
sim_num_branches                             75126 |        75126 |        75126 |        75126 |        75126 |        75126 |        75126 |       160498 |       160498 |       160498 |       160498 |       160498 |       160498 |       160498 |       354356 |       354356 |       354356 |       354356 |       354356 |       354356 |       354356 |       773974 |       773974 |       773974 |       773974 |       773974 |       773974 |       773974 |      1690153 |      1690153 |      1690153 |      1690153 |      1690153 |      1690153 |      1690153 |      3530200 |      3530200 |      3530200 |      3530200 |      3530200 |      3530200 |      3530200 |      7492782 |      7492782 |      7492782 |      7492782 |      7492782 |      7492782 |      7492782 |     15666793 |     15666793 |     15666793 |     15666793 |     15666793 |     15666793 |     15666793 |     33132089 |     33132089 |     33132089 |     33132089 |     33132089 |     33132089 |     33132089 |     70992911 |     70992911 |     70992911 |     70992911 |     70992911 |     70992911 |     70992911 |    147274052 |    147274052 |    147274052 |    147274052 |    147274052 |    147274052 |    147274052 |
sim_IPB                                     6.0998 |       6.0998 |       6.0998 |       6.0998 |       6.0998 |       6.0998 |       6.0998 |       6.0470 |       6.0470 |       6.0470 |       6.0470 |       6.0470 |       6.0470 |       6.0470 |       6.0027 |       6.0027 |       6.0027 |       6.0027 |       6.0027 |       6.0027 |       6.0027 |       5.9696 |       5.9696 |       5.9696 |       5.9696 |       5.9696 |       5.9696 |       5.9696 |       5.9519 |       5.9519 |       5.9519 |       5.9519 |       5.9519 |       5.9519 |       5.9519 |       5.9207 |       5.9207 |       5.9207 |       5.9207 |       5.9207 |       5.9207 |       5.9207 |       5.9031 |       5.9031 |       5.9031 |       5.9031 |       5.9031 |       5.9031 |       5.9031 |       5.8797 |       5.8797 |       5.8797 |       5.8797 |       5.8797 |       5.8797 |       5.8797 |       5.8617 |       5.8617 |       5.8617 |       5.8617 |       5.8617 |       5.8617 |       5.8617 |       5.8514 |       5.8514 |       5.8514 |       5.8514 |       5.8514 |       5.8514 |       5.8514 |       5.8332 |       5.8332 |       5.8332 |       5.8332 |       5.8332 |       5.8332 |       5.8332 |
bpred_bimod.lookups                          75126 |        75126 |        75126 |xxxxxxxxxxxxx |xxxxxxxxxxxxx |xxxxxxxxxxxxx |xxxxxxxxxxxxx |       160498 |       160498 |       160498 |xxxxxxxxxxxxx |xxxxxxxxxxxxx |xxxxxxxxxxxxx |xxxxxxxxxxxxx |       354356 |       354356 |       354356 |xxxxxxxxxxxxx |xxxxxxxxxxxxx |xxxxxxxxxxxxx |xxxxxxxxxxxxx |       773974 |       773974 |       773974 |xxxxxxxxxxxxx |xxxxxxxxxxxxx |xxxxxxxxxxxxx |xxxxxxxxxxxxx |      1690153 |      1690153 |      1690153 |xxxxxxxxxxxxx |xxxxxxxxxxxxx |xxxxxxxxxxxxx |xxxxxxxxxxxxx |      3530200 |      3530200 |      3530200 |xxxxxxxxxxxxx |xxxxxxxxxxxxx |xxxxxxxxxxxxx |xxxxxxxxxxxxx |      7492782 |      7492782 |      7492782 |xxxxxxxxxxxxx |xxxxxxxxxxxxx |xxxxxxxxxxxxx |xxxxxxxxxxxxx |     15666793 |     15666793 |     15666793 |xxxxxxxxxxxxx |xxxxxxxxxxxxx |xxxxxxxxxxxxx |xxxxxxxxxxxxx |     33132089 |     33132089 |     33132089 |xxxxxxxxxxxxx |xxxxxxxxxxxxx |xxxxxxxxxxxxx |xxxxxxxxxxxxx |     70992911 |     70992911 |     70992911 |xxxxxxxxxxxxx |xxxxxxxxxxxxx |xxxxxxxxxxxxx |xxxxxxxxxxxxx |    147274052 |    147274052 |    147274052 |
bpred_bimod.updates                          75126 |        75126 |        75126 |xxxxxxxxxxxxx |xxxxxxxxxxxxx |xxxxxxxxxxxxx |xxxxxxxxxxxxx |       160498 |       160498 |       160498 |xxxxxxxxxxxxx |xxxxxxxxxxxxx |xxxxxxxxxxxxx |xxxxxxxxxxxxx |       354356 |       354356 |       354356 |xxxxxxxxxxxxx |xxxxxxxxxxxxx |xxxxxxxxxxxxx |xxxxxxxxxxxxx |       773974 |       773974 |       773974 |xxxxxxxxxxxxx |xxxxxxxxxxxxx |xxxxxxxxxxxxx |xxxxxxxxxxxxx |      1690153 |      1690153 |      1690153 |xxxxxxxxxxxxx |xxxxxxxxxxxxx |xxxxxxxxxxxxx |xxxxxxxxxxxxx |      3530200 |      3530200 |      3530200 |xxxxxxxxxxxxx |xxxxxxxxxxxxx |xxxxxxxxxxxxx |xxxxxxxxxxxxx |      7492782 |      7492782 |      7492782 |xxxxxxxxxxxxx |xxxxxxxxxxxxx |xxxxxxxxxxxxx |xxxxxxxxxxxxx |     15666793 |     15666793 |     15666793 |xxxxxxxxxxxxx |xxxxxxxxxxxxx |xxxxxxxxxxxxx |xxxxxxxxxxxxx |     33132089 |     33132089 |     33132089 |xxxxxxxxxxxxx |xxxxxxxxxxxxx |xxxxxxxxxxxxx |xxxxxxxxxxxxx |     70992911 |     70992911 |     70992911 |xxxxxxxxxxxxx |xxxxxxxxxxxxx |xxxxxxxxxxxxx |xxxxxxxxxxxxx |    147274052 |    147274052 |    147274052 |
bpred_bimod.addr_hits                        53189 |        53187 |        53187 |xxxxxxxxxxxxx |xxxxxxxxxxxxx |xxxxxxxxxxxxx |xxxxxxxxxxxxx |       112681 |       112680 |       112682 |xxxxxxxxxxxxx |xxxxxxxxxxxxx |xxxxxxxxxxxxx |xxxxxxxxxxxxx |       254188 |       254190 |       254191 |xxxxxxxxxxxxx |xxxxxxxxxxxxx |xxxxxxxxxxxxx |xxxxxxxxxxxxx |       563741 |       563740 |       563741 |xxxxxxxxxxxxx |xxxxxxxxxxxxx |xxxxxxxxxxxxx |xxxxxxxxxxxxx |      1250747 |      1250746 |      1250747 |xxxxxxxxxxxxx |xxxxxxxxxxxxx |xxxxxxxxxxxxx |xxxxxxxxxxxxx |      2585789 |      2585788 |      2585789 |xxxxxxxxxxxxx |xxxxxxxxxxxxx |xxxxxxxxxxxxx |xxxxxxxxxxxxx |      5498639 |      5498638 |      5498638 |xxxxxxxxxxxxx |xxxxxxxxxxxxx |xxxxxxxxxxxxx |xxxxxxxxxxxxx |     11358954 |     11358953 |     11358954 |xxxxxxxxxxxxx |xxxxxxxxxxxxx |xxxxxxxxxxxxx |xxxxxxxxxxxxx |     24156163 |     24156162 |     24156164 |xxxxxxxxxxxxx |xxxxxxxxxxxxx |xxxxxxxxxxxxx |xxxxxxxxxxxxx |     52486834 |     52486833 |     52486835 |xxxxxxxxxxxxx |xxxxxxxxxxxxx |xxxxxxxxxxxxx |xxxxxxxxxxxxx |    107476856 |    107476855 |    107476856 |
bpred_bimod.dir_hits                         53302 |        53298 |        53298 |xxxxxxxxxxxxx |xxxxxxxxxxxxx |xxxxxxxxxxxxx |xxxxxxxxxxxxx |       112796 |       112791 |       112792 |xxxxxxxxxxxxx |xxxxxxxxxxxxx |xxxxxxxxxxxxx |xxxxxxxxxxxxx |       254299 |       254298 |       254300 |xxxxxxxxxxxxx |xxxxxxxxxxxxx |xxxxxxxxxxxxx |xxxxxxxxxxxxx |       563853 |       563850 |       563848 |xxxxxxxxxxxxx |xxxxxxxxxxxxx |xxxxxxxxxxxxx |xxxxxxxxxxxxx |      1250862 |      1250858 |      1250855 |xxxxxxxxxxxxx |xxxxxxxxxxxxx |xxxxxxxxxxxxx |xxxxxxxxxxxxx |      2585905 |      2585901 |      2585899 |xxxxxxxxxxxxx |xxxxxxxxxxxxx |xxxxxxxxxxxxx |xxxxxxxxxxxxx |      5498751 |      5498748 |      5498746 |xxxxxxxxxxxxx |xxxxxxxxxxxxx |xxxxxxxxxxxxx |xxxxxxxxxxxxx |     11359067 |     11359063 |     11359062 |xxxxxxxxxxxxx |xxxxxxxxxxxxx |xxxxxxxxxxxxx |xxxxxxxxxxxxx |     24156277 |     24156273 |     24156274 |xxxxxxxxxxxxx |xxxxxxxxxxxxx |xxxxxxxxxxxxx |xxxxxxxxxxxxx |     52486950 |     52486946 |     52486945 |xxxxxxxxxxxxx |xxxxxxxxxxxxx |xxxxxxxxxxxxx |xxxxxxxxxxxxx |    107476972 |    107476968 |    107476967 |
bpred_bimod.misses                           21824 |        21828 |        21828 |xxxxxxxxxxxxx |xxxxxxxxxxxxx |xxxxxxxxxxxxx |xxxxxxxxxxxxx |        47702 |        47707 |        47706 |xxxxxxxxxxxxx |xxxxxxxxxxxxx |xxxxxxxxxxxxx |xxxxxxxxxxxxx |       100057 |       100058 |       100056 |xxxxxxxxxxxxx |xxxxxxxxxxxxx |xxxxxxxxxxxxx |xxxxxxxxxxxxx |       210121 |       210124 |       210126 |xxxxxxxxxxxxx |xxxxxxxxxxxxx |xxxxxxxxxxxxx |xxxxxxxxxxxxx |       439291 |       439295 |       439298 |xxxxxxxxxxxxx |xxxxxxxxxxxxx |xxxxxxxxxxxxx |xxxxxxxxxxxxx |       944295 |       944299 |       944301 |xxxxxxxxxxxxx |xxxxxxxxxxxxx |xxxxxxxxxxxxx |xxxxxxxxxxxxx |      1994031 |      1994034 |      1994036 |xxxxxxxxxxxxx |xxxxxxxxxxxxx |xxxxxxxxxxxxx |xxxxxxxxxxxxx |      4307726 |      4307730 |      4307731 |xxxxxxxxxxxxx |xxxxxxxxxxxxx |xxxxxxxxxxxxx |xxxxxxxxxxxxx |      8975812 |      8975816 |      8975815 |xxxxxxxxxxxxx |xxxxxxxxxxxxx |xxxxxxxxxxxxx |xxxxxxxxxxxxx |     18505961 |     18505965 |     18505966 |xxxxxxxxxxxxx |xxxxxxxxxxxxx |xxxxxxxxxxxxx |xxxxxxxxxxxxx |     39797080 |     39797084 |     39797085 |
bpred_bimod.jr_hits                             64 |           64 |           64 |xxxxxxxxxxxxx |xxxxxxxxxxxxx |xxxxxxxxxxxxx |xxxxxxxxxxxxx |           64 |           64 |           64 |xxxxxxxxxxxxx |xxxxxxxxxxxxx |xxxxxxxxxxxxx |xxxxxxxxxxxxx |           64 |           64 |           64 |xxxxxxxxxxxxx |xxxxxxxxxxxxx |xxxxxxxxxxxxx |xxxxxxxxxxxxx |           64 |           64 |           64 |xxxxxxxxxxxxx |xxxxxxxxxxxxx |xxxxxxxxxxxxx |xxxxxxxxxxxxx |           64 |           64 |           64 |xxxxxxxxxxxxx |xxxxxxxxxxxxx |xxxxxxxxxxxxx |xxxxxxxxxxxxx |           64 |           64 |           64 |xxxxxxxxxxxxx |xxxxxxxxxxxxx |xxxxxxxxxxxxx |xxxxxxxxxxxxx |           64 |           64 |           64 |xxxxxxxxxxxxx |xxxxxxxxxxxxx |xxxxxxxxxxxxx |xxxxxxxxxxxxx |           64 |           64 |           64 |xxxxxxxxxxxxx |xxxxxxxxxxxxx |xxxxxxxxxxxxx |xxxxxxxxxxxxx |           64 |           64 |           64 |xxxxxxxxxxxxx |xxxxxxxxxxxxx |xxxxxxxxxxxxx |xxxxxxxxxxxxx |           64 |           64 |           64 |xxxxxxxxxxxxx |xxxxxxxxxxxxx |xxxxxxxxxxxxx |xxxxxxxxxxxxx |           64 |           64 |           64 |
bpred_bimod.jr_seen                             64 |           64 |           64 |xxxxxxxxxxxxx |xxxxxxxxxxxxx |xxxxxxxxxxxxx |xxxxxxxxxxxxx |           64 |           64 |           64 |xxxxxxxxxxxxx |xxxxxxxxxxxxx |xxxxxxxxxxxxx |xxxxxxxxxxxxx |           64 |           64 |           64 |xxxxxxxxxxxxx |xxxxxxxxxxxxx |xxxxxxxxxxxxx |xxxxxxxxxxxxx |           64 |           64 |           64 |xxxxxxxxxxxxx |xxxxxxxxxxxxx |xxxxxxxxxxxxx |xxxxxxxxxxxxx |           64 |           64 |           64 |xxxxxxxxxxxxx |xxxxxxxxxxxxx |xxxxxxxxxxxxx |xxxxxxxxxxxxx |           64 |           64 |           64 |xxxxxxxxxxxxx |xxxxxxxxxxxxx |xxxxxxxxxxxxx |xxxxxxxxxxxxx |           64 |           64 |           64 |xxxxxxxxxxxxx |xxxxxxxxxxxxx |xxxxxxxxxxxxx |xxxxxxxxxxxxx |           64 |           64 |           64 |xxxxxxxxxxxxx |xxxxxxxxxxxxx |xxxxxxxxxxxxx |xxxxxxxxxxxxx |           64 |           64 |           64 |xxxxxxxxxxxxx |xxxxxxxxxxxxx |xxxxxxxxxxxxx |xxxxxxxxxxxxx |           64 |           64 |           64 |xxxxxxxxxxxxx |xxxxxxxxxxxxx |xxxxxxxxxxxxx |xxxxxxxxxxxxx |           64 |           64 |           64 |
bpred_bimod.jr_non_ras_hits.PP                   0 |            0 |            0 |xxxxxxxxxxxxx |xxxxxxxxxxxxx |xxxxxxxxxxxxx |xxxxxxxxxxxxx |            0 |            0 |            0 |xxxxxxxxxxxxx |xxxxxxxxxxxxx |xxxxxxxxxxxxx |xxxxxxxxxxxxx |            0 |            0 |            0 |xxxxxxxxxxxxx |xxxxxxxxxxxxx |xxxxxxxxxxxxx |xxxxxxxxxxxxx |            0 |            0 |            0 |xxxxxxxxxxxxx |xxxxxxxxxxxxx |xxxxxxxxxxxxx |xxxxxxxxxxxxx |            0 |            0 |            0 |xxxxxxxxxxxxx |xxxxxxxxxxxxx |xxxxxxxxxxxxx |xxxxxxxxxxxxx |            0 |            0 |            0 |xxxxxxxxxxxxx |xxxxxxxxxxxxx |xxxxxxxxxxxxx |xxxxxxxxxxxxx |            0 |            0 |            0 |xxxxxxxxxxxxx |xxxxxxxxxxxxx |xxxxxxxxxxxxx |xxxxxxxxxxxxx |            0 |            0 |            0 |xxxxxxxxxxxxx |xxxxxxxxxxxxx |xxxxxxxxxxxxx |xxxxxxxxxxxxx |            0 |            0 |            0 |xxxxxxxxxxxxx |xxxxxxxxxxxxx |xxxxxxxxxxxxx |xxxxxxxxxxxxx |            0 |            0 |            0 |xxxxxxxxxxxxx |xxxxxxxxxxxxx |xxxxxxxxxxxxx |xxxxxxxxxxxxx |            0 |            0 |            0 |
bpred_bimod.jr_non_ras_seen.PP                   0 |            0 |            0 |xxxxxxxxxxxxx |xxxxxxxxxxxxx |xxxxxxxxxxxxx |xxxxxxxxxxxxx |            0 |            0 |            0 |xxxxxxxxxxxxx |xxxxxxxxxxxxx |xxxxxxxxxxxxx |xxxxxxxxxxxxx |            0 |            0 |            0 |xxxxxxxxxxxxx |xxxxxxxxxxxxx |xxxxxxxxxxxxx |xxxxxxxxxxxxx |            0 |            0 |            0 |xxxxxxxxxxxxx |xxxxxxxxxxxxx |xxxxxxxxxxxxx |xxxxxxxxxxxxx |            0 |            0 |            0 |xxxxxxxxxxxxx |xxxxxxxxxxxxx |xxxxxxxxxxxxx |xxxxxxxxxxxxx |            0 |            0 |            0 |xxxxxxxxxxxxx |xxxxxxxxxxxxx |xxxxxxxxxxxxx |xxxxxxxxxxxxx |            0 |            0 |            0 |xxxxxxxxxxxxx |xxxxxxxxxxxxx |xxxxxxxxxxxxx |xxxxxxxxxxxxx |            0 |            0 |            0 |xxxxxxxxxxxxx |xxxxxxxxxxxxx |xxxxxxxxxxxxx |xxxxxxxxxxxxx |            0 |            0 |            0 |xxxxxxxxxxxxx |xxxxxxxxxxxxx |xxxxxxxxxxxxx |xxxxxxxxxxxxx |            0 |            0 |            0 |xxxxxxxxxxxxx |xxxxxxxxxxxxx |xxxxxxxxxxxxx |xxxxxxxxxxxxx |            0 |            0 |            0 |
bpred_bimod.bpred_addr_rate                 0.7080 |       0.7080 |       0.7080 |xxxxxxxxxxxxx |xxxxxxxxxxxxx |xxxxxxxxxxxxx |xxxxxxxxxxxxx |       0.7021 |       0.7021 |       0.7021 |xxxxxxxxxxxxx |xxxxxxxxxxxxx |xxxxxxxxxxxxx |xxxxxxxxxxxxx |       0.7173 |       0.7173 |       0.7173 |xxxxxxxxxxxxx |xxxxxxxxxxxxx |xxxxxxxxxxxxx |xxxxxxxxxxxxx |       0.7284 |       0.7284 |       0.7284 |xxxxxxxxxxxxx |xxxxxxxxxxxxx |xxxxxxxxxxxxx |xxxxxxxxxxxxx |       0.7400 |       0.7400 |       0.7400 |xxxxxxxxxxxxx |xxxxxxxxxxxxx |xxxxxxxxxxxxx |xxxxxxxxxxxxx |       0.7325 |       0.7325 |       0.7325 |xxxxxxxxxxxxx |xxxxxxxxxxxxx |xxxxxxxxxxxxx |xxxxxxxxxxxxx |       0.7339 |       0.7339 |       0.7339 |xxxxxxxxxxxxx |xxxxxxxxxxxxx |xxxxxxxxxxxxx |xxxxxxxxxxxxx |       0.7250 |       0.7250 |       0.7250 |xxxxxxxxxxxxx |xxxxxxxxxxxxx |xxxxxxxxxxxxx |xxxxxxxxxxxxx |       0.7291 |       0.7291 |       0.7291 |xxxxxxxxxxxxx |xxxxxxxxxxxxx |xxxxxxxxxxxxx |xxxxxxxxxxxxx |       0.7393 |       0.7393 |       0.7393 |xxxxxxxxxxxxx |xxxxxxxxxxxxx |xxxxxxxxxxxxx |xxxxxxxxxxxxx |       0.7298 |       0.7298 |       0.7298 |
bpred_bimod.bpred_dir_rate                  0.7095 |       0.7094 |       0.7094 |xxxxxxxxxxxxx |xxxxxxxxxxxxx |xxxxxxxxxxxxx |xxxxxxxxxxxxx |       0.7028 |       0.7028 |       0.7028 |xxxxxxxxxxxxx |xxxxxxxxxxxxx |xxxxxxxxxxxxx |xxxxxxxxxxxxx |       0.7176 |       0.7176 |       0.7176 |xxxxxxxxxxxxx |xxxxxxxxxxxxx |xxxxxxxxxxxxx |xxxxxxxxxxxxx |       0.7285 |       0.7285 |       0.7285 |xxxxxxxxxxxxx |xxxxxxxxxxxxx |xxxxxxxxxxxxx |xxxxxxxxxxxxx |       0.7401 |       0.7401 |       0.7401 |xxxxxxxxxxxxx |xxxxxxxxxxxxx |xxxxxxxxxxxxx |xxxxxxxxxxxxx |       0.7325 |       0.7325 |       0.7325 |xxxxxxxxxxxxx |xxxxxxxxxxxxx |xxxxxxxxxxxxx |xxxxxxxxxxxxx |       0.7339 |       0.7339 |       0.7339 |xxxxxxxxxxxxx |xxxxxxxxxxxxx |xxxxxxxxxxxxx |xxxxxxxxxxxxx |       0.7250 |       0.7250 |       0.7250 |xxxxxxxxxxxxx |xxxxxxxxxxxxx |xxxxxxxxxxxxx |xxxxxxxxxxxxx |       0.7291 |       0.7291 |       0.7291 |xxxxxxxxxxxxx |xxxxxxxxxxxxx |xxxxxxxxxxxxx |xxxxxxxxxxxxx |       0.7393 |       0.7393 |       0.7393 |xxxxxxxxxxxxx |xxxxxxxxxxxxx |xxxxxxxxxxxxx |xxxxxxxxxxxxx |       0.7298 |       0.7298 |       0.7298 |
bpred_bimod.bpred_jr_rate                   1.0000 |       1.0000 |       1.0000 |xxxxxxxxxxxxx |xxxxxxxxxxxxx |xxxxxxxxxxxxx |xxxxxxxxxxxxx |       1.0000 |       1.0000 |       1.0000 |xxxxxxxxxxxxx |xxxxxxxxxxxxx |xxxxxxxxxxxxx |xxxxxxxxxxxxx |       1.0000 |       1.0000 |       1.0000 |xxxxxxxxxxxxx |xxxxxxxxxxxxx |xxxxxxxxxxxxx |xxxxxxxxxxxxx |       1.0000 |       1.0000 |       1.0000 |xxxxxxxxxxxxx |xxxxxxxxxxxxx |xxxxxxxxxxxxx |xxxxxxxxxxxxx |       1.0000 |       1.0000 |       1.0000 |xxxxxxxxxxxxx |xxxxxxxxxxxxx |xxxxxxxxxxxxx |xxxxxxxxxxxxx |       1.0000 |       1.0000 |       1.0000 |xxxxxxxxxxxxx |xxxxxxxxxxxxx |xxxxxxxxxxxxx |xxxxxxxxxxxxx |       1.0000 |       1.0000 |       1.0000 |xxxxxxxxxxxxx |xxxxxxxxxxxxx |xxxxxxxxxxxxx |xxxxxxxxxxxxx |       1.0000 |       1.0000 |       1.0000 |xxxxxxxxxxxxx |xxxxxxxxxxxxx |xxxxxxxxxxxxx |xxxxxxxxxxxxx |       1.0000 |       1.0000 |       1.0000 |xxxxxxxxxxxxx |xxxxxxxxxxxxx |xxxxxxxxxxxxx |xxxxxxxxxxxxx |       1.0000 |       1.0000 |       1.0000 |xxxxxxxxxxxxx |xxxxxxxxxxxxx |xxxxxxxxxxxxx |xxxxxxxxxxxxx |       1.0000 |       1.0000 |       1.0000 |
bpred_bimod.bpred_jr_non_ras_rate.PP       <error: |      <error: |      <error: |xxxxxxxxxxxxx |xxxxxxxxxxxxx |xxxxxxxxxxxxx |xxxxxxxxxxxxx |      <error: |      <error: |      <error: |xxxxxxxxxxxxx |xxxxxxxxxxxxx |xxxxxxxxxxxxx |xxxxxxxxxxxxx |      <error: |      <error: |      <error: |xxxxxxxxxxxxx |xxxxxxxxxxxxx |xxxxxxxxxxxxx |xxxxxxxxxxxxx |      <error: |      <error: |      <error: |xxxxxxxxxxxxx |xxxxxxxxxxxxx |xxxxxxxxxxxxx |xxxxxxxxxxxxx |      <error: |      <error: |      <error: |xxxxxxxxxxxxx |xxxxxxxxxxxxx |xxxxxxxxxxxxx |xxxxxxxxxxxxx |      <error: |      <error: |      <error: |xxxxxxxxxxxxx |xxxxxxxxxxxxx |xxxxxxxxxxxxx |xxxxxxxxxxxxx |      <error: |      <error: |      <error: |xxxxxxxxxxxxx |xxxxxxxxxxxxx |xxxxxxxxxxxxx |xxxxxxxxxxxxx |      <error: |      <error: |      <error: |xxxxxxxxxxxxx |xxxxxxxxxxxxx |xxxxxxxxxxxxx |xxxxxxxxxxxxx |      <error: |      <error: |      <error: |xxxxxxxxxxxxx |xxxxxxxxxxxxx |xxxxxxxxxxxxx |xxxxxxxxxxxxx |      <error: |      <error: |      <error: |xxxxxxxxxxxxx |xxxxxxxxxxxxx |xxxxxxxxxxxxx |xxxxxxxxxxxxx |      <error: |      <error: |      <error: |
bpred_bimod.retstack_pushes                     66 |           66 |           66 |xxxxxxxxxxxxx |xxxxxxxxxxxxx |xxxxxxxxxxxxx |xxxxxxxxxxxxx |           66 |           66 |           66 |xxxxxxxxxxxxx |xxxxxxxxxxxxx |xxxxxxxxxxxxx |xxxxxxxxxxxxx |           66 |           66 |           66 |xxxxxxxxxxxxx |xxxxxxxxxxxxx |xxxxxxxxxxxxx |xxxxxxxxxxxxx |           66 |           66 |           66 |xxxxxxxxxxxxx |xxxxxxxxxxxxx |xxxxxxxxxxxxx |xxxxxxxxxxxxx |           66 |           66 |           66 |xxxxxxxxxxxxx |xxxxxxxxxxxxx |xxxxxxxxxxxxx |xxxxxxxxxxxxx |           66 |           66 |           66 |xxxxxxxxxxxxx |xxxxxxxxxxxxx |xxxxxxxxxxxxx |xxxxxxxxxxxxx |           66 |           66 |           66 |xxxxxxxxxxxxx |xxxxxxxxxxxxx |xxxxxxxxxxxxx |xxxxxxxxxxxxx |           66 |           66 |           66 |xxxxxxxxxxxxx |xxxxxxxxxxxxx |xxxxxxxxxxxxx |xxxxxxxxxxxxx |           66 |           66 |           66 |xxxxxxxxxxxxx |xxxxxxxxxxxxx |xxxxxxxxxxxxx |xxxxxxxxxxxxx |           66 |           66 |           66 |xxxxxxxxxxxxx |xxxxxxxxxxxxx |xxxxxxxxxxxxx |xxxxxxxxxxxxx |           66 |           66 |           66 |
bpred_bimod.retstack_pops                       64 |           64 |           64 |xxxxxxxxxxxxx |xxxxxxxxxxxxx |xxxxxxxxxxxxx |xxxxxxxxxxxxx |           64 |           64 |           64 |xxxxxxxxxxxxx |xxxxxxxxxxxxx |xxxxxxxxxxxxx |xxxxxxxxxxxxx |           64 |           64 |           64 |xxxxxxxxxxxxx |xxxxxxxxxxxxx |xxxxxxxxxxxxx |xxxxxxxxxxxxx |           64 |           64 |           64 |xxxxxxxxxxxxx |xxxxxxxxxxxxx |xxxxxxxxxxxxx |xxxxxxxxxxxxx |           64 |           64 |           64 |xxxxxxxxxxxxx |xxxxxxxxxxxxx |xxxxxxxxxxxxx |xxxxxxxxxxxxx |           64 |           64 |           64 |xxxxxxxxxxxxx |xxxxxxxxxxxxx |xxxxxxxxxxxxx |xxxxxxxxxxxxx |           64 |           64 |           64 |xxxxxxxxxxxxx |xxxxxxxxxxxxx |xxxxxxxxxxxxx |xxxxxxxxxxxxx |           64 |           64 |           64 |xxxxxxxxxxxxx |xxxxxxxxxxxxx |xxxxxxxxxxxxx |xxxxxxxxxxxxx |           64 |           64 |           64 |xxxxxxxxxxxxx |xxxxxxxxxxxxx |xxxxxxxxxxxxx |xxxxxxxxxxxxx |           64 |           64 |           64 |xxxxxxxxxxxxx |xxxxxxxxxxxxx |xxxxxxxxxxxxx |xxxxxxxxxxxxx |           64 |           64 |           64 |
bpred_bimod.used_ras.PP                         64 |           64 |           64 |xxxxxxxxxxxxx |xxxxxxxxxxxxx |xxxxxxxxxxxxx |xxxxxxxxxxxxx |           64 |           64 |           64 |xxxxxxxxxxxxx |xxxxxxxxxxxxx |xxxxxxxxxxxxx |xxxxxxxxxxxxx |           64 |           64 |           64 |xxxxxxxxxxxxx |xxxxxxxxxxxxx |xxxxxxxxxxxxx |xxxxxxxxxxxxx |           64 |           64 |           64 |xxxxxxxxxxxxx |xxxxxxxxxxxxx |xxxxxxxxxxxxx |xxxxxxxxxxxxx |           64 |           64 |           64 |xxxxxxxxxxxxx |xxxxxxxxxxxxx |xxxxxxxxxxxxx |xxxxxxxxxxxxx |           64 |           64 |           64 |xxxxxxxxxxxxx |xxxxxxxxxxxxx |xxxxxxxxxxxxx |xxxxxxxxxxxxx |           64 |           64 |           64 |xxxxxxxxxxxxx |xxxxxxxxxxxxx |xxxxxxxxxxxxx |xxxxxxxxxxxxx |           64 |           64 |           64 |xxxxxxxxxxxxx |xxxxxxxxxxxxx |xxxxxxxxxxxxx |xxxxxxxxxxxxx |           64 |           64 |           64 |xxxxxxxxxxxxx |xxxxxxxxxxxxx |xxxxxxxxxxxxx |xxxxxxxxxxxxx |           64 |           64 |           64 |xxxxxxxxxxxxx |xxxxxxxxxxxxx |xxxxxxxxxxxxx |xxxxxxxxxxxxx |           64 |           64 |           64 |
bpred_bimod.ras_hits.PP                         64 |           64 |           64 |xxxxxxxxxxxxx |xxxxxxxxxxxxx |xxxxxxxxxxxxx |xxxxxxxxxxxxx |           64 |           64 |           64 |xxxxxxxxxxxxx |xxxxxxxxxxxxx |xxxxxxxxxxxxx |xxxxxxxxxxxxx |           64 |           64 |           64 |xxxxxxxxxxxxx |xxxxxxxxxxxxx |xxxxxxxxxxxxx |xxxxxxxxxxxxx |           64 |           64 |           64 |xxxxxxxxxxxxx |xxxxxxxxxxxxx |xxxxxxxxxxxxx |xxxxxxxxxxxxx |           64 |           64 |           64 |xxxxxxxxxxxxx |xxxxxxxxxxxxx |xxxxxxxxxxxxx |xxxxxxxxxxxxx |           64 |           64 |           64 |xxxxxxxxxxxxx |xxxxxxxxxxxxx |xxxxxxxxxxxxx |xxxxxxxxxxxxx |           64 |           64 |           64 |xxxxxxxxxxxxx |xxxxxxxxxxxxx |xxxxxxxxxxxxx |xxxxxxxxxxxxx |           64 |           64 |           64 |xxxxxxxxxxxxx |xxxxxxxxxxxxx |xxxxxxxxxxxxx |xxxxxxxxxxxxx |           64 |           64 |           64 |xxxxxxxxxxxxx |xxxxxxxxxxxxx |xxxxxxxxxxxxx |xxxxxxxxxxxxx |           64 |           64 |           64 |xxxxxxxxxxxxx |xxxxxxxxxxxxx |xxxxxxxxxxxxx |xxxxxxxxxxxxx |           64 |           64 |           64 |
bpred_bimod.ras_rate.PP                     1.0000 |       1.0000 |       1.0000 |xxxxxxxxxxxxx |xxxxxxxxxxxxx |xxxxxxxxxxxxx |xxxxxxxxxxxxx |       1.0000 |       1.0000 |       1.0000 |xxxxxxxxxxxxx |xxxxxxxxxxxxx |xxxxxxxxxxxxx |xxxxxxxxxxxxx |       1.0000 |       1.0000 |       1.0000 |xxxxxxxxxxxxx |xxxxxxxxxxxxx |xxxxxxxxxxxxx |xxxxxxxxxxxxx |       1.0000 |       1.0000 |       1.0000 |xxxxxxxxxxxxx |xxxxxxxxxxxxx |xxxxxxxxxxxxx |xxxxxxxxxxxxx |       1.0000 |       1.0000 |       1.0000 |xxxxxxxxxxxxx |xxxxxxxxxxxxx |xxxxxxxxxxxxx |xxxxxxxxxxxxx |       1.0000 |       1.0000 |       1.0000 |xxxxxxxxxxxxx |xxxxxxxxxxxxx |xxxxxxxxxxxxx |xxxxxxxxxxxxx |       1.0000 |       1.0000 |       1.0000 |xxxxxxxxxxxxx |xxxxxxxxxxxxx |xxxxxxxxxxxxx |xxxxxxxxxxxxx |       1.0000 |       1.0000 |       1.0000 |xxxxxxxxxxxxx |xxxxxxxxxxxxx |xxxxxxxxxxxxx |xxxxxxxxxxxxx |       1.0000 |       1.0000 |       1.0000 |xxxxxxxxxxxxx |xxxxxxxxxxxxx |xxxxxxxxxxxxx |xxxxxxxxxxxxx |       1.0000 |       1.0000 |       1.0000 |xxxxxxxxxxxxx |xxxxxxxxxxxxx |xxxxxxxxxxxxx |xxxxxxxxxxxxx |       1.0000 |       1.0000 |       1.0000 |
bpred_2lev.lookups                   xxxxxxxxxxxxx |xxxxxxxxxxxxx |xxxxxxxxxxxxx |        75126 |        75126 |        75126 |        75126 |xxxxxxxxxxxxx |xxxxxxxxxxxxx |xxxxxxxxxxxxx |       160498 |       160498 |       160498 |       160498 |xxxxxxxxxxxxx |xxxxxxxxxxxxx |xxxxxxxxxxxxx |       354356 |       354356 |       354356 |       354356 |xxxxxxxxxxxxx |xxxxxxxxxxxxx |xxxxxxxxxxxxx |       773974 |       773974 |       773974 |       773974 |xxxxxxxxxxxxx |xxxxxxxxxxxxx |xxxxxxxxxxxxx |      1690153 |      1690153 |      1690153 |      1690153 |xxxxxxxxxxxxx |xxxxxxxxxxxxx |xxxxxxxxxxxxx |      3530200 |      3530200 |      3530200 |      3530200 |xxxxxxxxxxxxx |xxxxxxxxxxxxx |xxxxxxxxxxxxx |      7492782 |      7492782 |      7492782 |      7492782 |xxxxxxxxxxxxx |xxxxxxxxxxxxx |xxxxxxxxxxxxx |     15666793 |     15666793 |     15666793 |     15666793 |xxxxxxxxxxxxx |xxxxxxxxxxxxx |xxxxxxxxxxxxx |     33132089 |     33132089 |     33132089 |     33132089 |xxxxxxxxxxxxx |xxxxxxxxxxxxx |xxxxxxxxxxxxx |     70992911 |     70992911 |     70992911 |     70992911 |xxxxxxxxxxxxx |xxxxxxxxxxxxx |xxxxxxxxxxxxx |    147274052 |    147274052 |    147274052 |    147274052 |
[...]
bpred_2lev.retstack_pops             xxxxxxxxxxxxx |xxxxxxxxxxxxx |xxxxxxxxxxxxx |           64 |           64 |           64 |           64 |xxxxxxxxxxxxx |xxxxxxxxxxxxx |xxxxxxxxxxxxx |           64 |           64 |           64 |           64 |xxxxxxxxxxxxx |xxxxxxxxxxxxx |xxxxxxxxxxxxx |           64 |           64 |           64 |           64 |xxxxxxxxxxxxx |xxxxxxxxxxxxx |xxxxxxxxxxxxx |           64 |           64 |           64 |           64 |xxxxxxxxxxxxx |xxxxxxxxxxxxx |xxxxxxxxxxxxx |           64 |           64 |           64 |           64 |xxxxxxxxxxxxx |xxxxxxxxxxxxx |xxxxxxxxxxxxx |           64 |           64 |           64 |           64 |xxxxxxxxxxxxx |xxxxxxxxxxxxx |xxxxxxxxxxxxx |           64 |           64 |           64 |           64 |xxxxxxxxxxxxx |xxxxxxxxxxxxx |xxxxxxxxxxxxx |           64 |           64 |           64 |           64 |xxxxxxxxxxxxx |xxxxxxxxxxxxx |xxxxxxxxxxxxx |           64 |           64 |           64 |           64 |xxxxxxxxxxxxx |xxxxxxxxxxxxx |xxxxxxxxxxxxx |           64 |           64 |           64 |           64 |xxxxxxxxxxxxx |xxxxxxxxxxxxx |xxxxxxxxxxxxx |           64 |           64 |           64 |           64 |
bpred_2lev.used_ras.PP               xxxxxxxxxxxxx |xxxxxxxxxxxxx |xxxxxxxxxxxxx |           64 |           64 |           64 |           64 |xxxxxxxxxxxxx |xxxxxxxxxxxxx |xxxxxxxxxxxxx |           64 |           64 |           64 |           64 |xxxxxxxxxxxxx |xxxxxxxxxxxxx |xxxxxxxxxxxxx |           64 |           64 |           64 |           64 |xxxxxxxxxxxxx |xxxxxxxxxxxxx |xxxxxxxxxxxxx |           64 |           64 |           64 |           64 |xxxxxxxxxxxxx |xxxxxxxxxxxxx |xxxxxxxxxxxxx |           64 |           64 |           64 |           64 |xxxxxxxxxxxxx |xxxxxxxxxxxxx |xxxxxxxxxxxxx |           64 |           64 |           64 |           64 |xxxxxxxxxxxxx |xxxxxxxxxxxxx |xxxxxxxxxxxxx |           64 |           64 |           64 |           64 |xxxxxxxxxxxxx |xxxxxxxxxxxxx |xxxxxxxxxxxxx |           64 |           64 |           64 |           64 |xxxxxxxxxxxxx |xxxxxxxxxxxxx |xxxxxxxxxxxxx |           64 |           64 |           64 |           64 |xxxxxxxxxxxxx |xxxxxxxxxxxxx |xxxxxxxxxxxxx |           64 |           64 |           64 |           64 |xxxxxxxxxxxxx |xxxxxxxxxxxxx |xxxxxxxxxxxxx |           64 |           64 |           64 |           64 |
bpred_2lev.ras_hits.PP               xxxxxxxxxxxxx |xxxxxxxxxxxxx |xxxxxxxxxxxxx |           64 |           64 |           64 |           64 |xxxxxxxxxxxxx |xxxxxxxxxxxxx |xxxxxxxxxxxxx |           64 |           64 |           64 |           64 |xxxxxxxxxxxxx |xxxxxxxxxxxxx |xxxxxxxxxxxxx |           64 |           64 |           64 |           64 |xxxxxxxxxxxxx |xxxxxxxxxxxxx |xxxxxxxxxxxxx |           64 |           64 |           64 |           64 |xxxxxxxxxxxxx |xxxxxxxxxxxxx |xxxxxxxxxxxxx |           64 |           64 |           64 |           64 |xxxxxxxxxxxxx |xxxxxxxxxxxxx |xxxxxxxxxxxxx |           64 |           64 |           64 |           64 |xxxxxxxxxxxxx |xxxxxxxxxxxxx |xxxxxxxxxxxxx |           64 |           64 |           64 |           64 |xxxxxxxxxxxxx |xxxxxxxxxxxxx |xxxxxxxxxxxxx |           64 |           64 |           64 |           64 |xxxxxxxxxxxxx |xxxxxxxxxxxxx |xxxxxxxxxxxxx |           64 |           64 |           64 |           64 |xxxxxxxxxxxxx |xxxxxxxxxxxxx |xxxxxxxxxxxxx |           64 |           64 |           64 |           64 |xxxxxxxxxxxxx |xxxxxxxxxxxxx |xxxxxxxxxxxxx |           64 |           64 |           64 |           64 |
bpred_2lev.ras_rate.PP               xxxxxxxxxxxxx |xxxxxxxxxxxxx |xxxxxxxxxxxxx |       1.0000 |       1.0000 |       1.0000 |       1.0000 |xxxxxxxxxxxxx |xxxxxxxxxxxxx |xxxxxxxxxxxxx |       1.0000 |       1.0000 |       1.0000 |       1.0000 |xxxxxxxxxxxxx |xxxxxxxxxxxxx |xxxxxxxxxxxxx |       1.0000 |       1.0000 |       1.0000 |       1.0000 |xxxxxxxxxxxxx |xxxxxxxxxxxxx |xxxxxxxxxxxxx |       1.0000 |       1.0000 |       1.0000 |       1.0000 |xxxxxxxxxxxxx |xxxxxxxxxxxxx |xxxxxxxxxxxxx |       1.0000 |       1.0000 |       1.0000 |       1.0000 |xxxxxxxxxxxxx |xxxxxxxxxxxxx |xxxxxxxxxxxxx |       1.0000 |       1.0000 |       1.0000 |       1.0000 |xxxxxxxxxxxxx |xxxxxxxxxxxxx |xxxxxxxxxxxxx |       1.0000 |       1.0000 |       1.0000 |       1.0000 |xxxxxxxxxxxxx |xxxxxxxxxxxxx |xxxxxxxxxxxxx |       1.0000 |       1.0000 |       1.0000 |       1.0000 |xxxxxxxxxxxxx |xxxxxxxxxxxxx |xxxxxxxxxxxxx |       1.0000 |       1.0000 |       1.0000 |       1.0000 |xxxxxxxxxxxxx |xxxxxxxxxxxxx |xxxxxxxxxxxxx |       1.0000 |       1.0000 |       1.0000 |       1.0000 |xxxxxxxxxxxxx |xxxxxxxxxxxxx |xxxxxxxxxxxxx |       1.0000 |       1.0000 |       1.0000 |       1.0000 |

Command list: 
	sslittle-na-sstrix-gcc -Wall -O3 -funroll-loops -finline-functions  -DRANDOM_SIZE=4096 -DOFFSET=6 -DSORT=memory_tuned_quicksort sorts/memory_tuned_quicksort1348487333.c simpleMain.c -o memory_tuned_quicksort631048546
	sim-cache -cache:dl1 dl1:256:32:1:l -cache:dl2 dl2:131072:32:1:l -cache:il1 il1:256:32:1:l -cache:il2 dl2 memory_tuned_quicksort631048546
	sim-cache -cache:dl1 dl1:256:32:1:l -cache:dl2 dl2:65536:32:1:l -cache:il1 il1:256:32:1:l -cache:il2 dl2 memory_tuned_quicksort631048546
	sim-cache -cache:dl1 dl1:1:32:256:l -cache:dl2 dl2:1:32:131072:l -cache:il1 il1:1:32:256:l -cache:il2 dl2 memory_tuned_quicksort631048546
	sim-cache -cache:dl1 dl1:1:32:256:l -cache:dl2 dl2:1:32:65536:l -cache:il1 il1:1:32:256:l -cache:il2 dl2 memory_tuned_quicksort631048546
	sim-bpred -bpred bimod -bpred:bimod 512 memory_tuned_quicksort631048546
	sim-bpred -bpred bimod -bpred:bimod 1024 memory_tuned_quicksort631048546
	sim-bpred -bpred bimod -bpred:bimod 2048 memory_tuned_quicksort631048546
	sim-bpred -bpred 2lev -bpred:2lev 1 512 10 1 memory_tuned_quicksort631048546
	sim-bpred -bpred 2lev -bpred:2lev 1 1024 10 1 memory_tuned_quicksort631048546
	sim-bpred -bpred 2lev -bpred:2lev 1 2048 10 1 memory_tuned_quicksort631048546
	sim-bpred -bpred 2lev -bpred:2lev 1 4096 10 1 memory_tuned_quicksort631048546
	sslittle-na-sstrix-gcc -Wall -O3 -funroll-loops -finline-functions  -DRANDOM_SIZE=8192 -DOFFSET=6 -DSORT=memory_tuned_quicksort sorts/memory_tuned_quicksort1348487333.c simpleMain.c -o memory_tuned_quicksort631048546
	sim-cache -cache:dl1 dl1:256:32:1:l -cache:dl2 dl2:131072:32:1:l -cache:il1 il1:256:32:1:l -cache:il2 dl2 memory_tuned_quicksort631048546
	sim-cache -cache:dl1 dl1:256:32:1:l -cache:dl2 dl2:65536:32:1:l -cache:il1 il1:256:32:1:l -cache:il2 dl2 memory_tuned_quicksort631048546
	sim-cache -cache:dl1 dl1:1:32:256:l -cache:dl2 dl2:1:32:131072:l -cache:il1 il1:1:32:256:l -cache:il2 dl2 memory_tuned_quicksort631048546
	sim-cache -cache:dl1 dl1:1:32:256:l -cache:dl2 dl2:1:32:65536:l -cache:il1 il1:1:32:256:l -cache:il2 dl2 memory_tuned_quicksort631048546
	sim-bpred -bpred bimod -bpred:bimod 512 memory_tuned_quicksort631048546
	sim-bpred -bpred bimod -bpred:bimod 1024 memory_tuned_quicksort631048546
	sim-bpred -bpred bimod -bpred:bimod 2048 memory_tuned_quicksort631048546
	sim-bpred -bpred 2lev -bpred:2lev 1 512 10 1 memory_tuned_quicksort631048546
	sim-bpred -bpred 2lev -bpred:2lev 1 1024 10 1 memory_tuned_quicksort631048546
	sim-bpred -bpred 2lev -bpred:2lev 1 2048 10 1 memory_tuned_quicksort631048546
	sim-bpred -bpred 2lev -bpred:2lev 1 4096 10 1 memory_tuned_quicksort631048546
	sslittle-na-sstrix-gcc -Wall -O3 -funroll-loops -finline-functions  -DRANDOM_SIZE=16384 -DOFFSET=6 -DSORT=memory_tuned_quicksort sorts/memory_tuned_quicksort1348487333.c simpleMain.c -o memory_tuned_quicksort631048546
	sim-cache -cache:dl1 dl1:256:32:1:l -cache:dl2 dl2:131072:32:1:l -cache:il1 il1:256:32:1:l -cache:il2 dl2 memory_tuned_quicksort631048546
	sim-cache -cache:dl1 dl1:256:32:1:l -cache:dl2 dl2:65536:32:1:l -cache:il1 il1:256:32:1:l -cache:il2 dl2 memory_tuned_quicksort631048546
	sim-cache -cache:dl1 dl1:1:32:256:l -cache:dl2 dl2:1:32:131072:l -cache:il1 il1:1:32:256:l -cache:il2 dl2 memory_tuned_quicksort631048546
	sim-cache -cache:dl1 dl1:1:32:256:l -cache:dl2 dl2:1:32:65536:l -cache:il1 il1:1:32:256:l -cache:il2 dl2 memory_tuned_quicksort631048546
	sim-bpred -bpred bimod -bpred:bimod 512 memory_tuned_quicksort631048546
	sim-bpred -bpred bimod -bpred:bimod 1024 memory_tuned_quicksort631048546
	sim-bpred -bpred bimod -bpred:bimod 2048 memory_tuned_quicksort631048546
	sim-bpred -bpred 2lev -bpred:2lev 1 512 10 1 memory_tuned_quicksort631048546
	sim-bpred -bpred 2lev -bpred:2lev 1 1024 10 1 memory_tuned_quicksort631048546
	sim-bpred -bpred 2lev -bpred:2lev 1 2048 10 1 memory_tuned_quicksort631048546
	sim-bpred -bpred 2lev -bpred:2lev 1 4096 10 1 memory_tuned_quicksort631048546
	sslittle-na-sstrix-gcc -Wall -O3 -funroll-loops -finline-functions  -DRANDOM_SIZE=32768 -DOFFSET=6 -DSORT=memory_tuned_quicksort sorts/memory_tuned_quicksort1348487333.c simpleMain.c -o memory_tuned_quicksort631048546
	sim-cache -cache:dl1 dl1:256:32:1:l -cache:dl2 dl2:131072:32:1:l -cache:il1 il1:256:32:1:l -cache:il2 dl2 memory_tuned_quicksort631048546
	sim-cache -cache:dl1 dl1:256:32:1:l -cache:dl2 dl2:65536:32:1:l -cache:il1 il1:256:32:1:l -cache:il2 dl2 memory_tuned_quicksort631048546
	sim-cache -cache:dl1 dl1:1:32:256:l -cache:dl2 dl2:1:32:131072:l -cache:il1 il1:1:32:256:l -cache:il2 dl2 memory_tuned_quicksort631048546
	sim-cache -cache:dl1 dl1:1:32:256:l -cache:dl2 dl2:1:32:65536:l -cache:il1 il1:1:32:256:l -cache:il2 dl2 memory_tuned_quicksort631048546
	sim-bpred -bpred bimod -bpred:bimod 512 memory_tuned_quicksort631048546
	sim-bpred -bpred bimod -bpred:bimod 1024 memory_tuned_quicksort631048546
	sim-bpred -bpred bimod -bpred:bimod 2048 memory_tuned_quicksort631048546
	sim-bpred -bpred 2lev -bpred:2lev 1 512 10 1 memory_tuned_quicksort631048546
	sim-bpred -bpred 2lev -bpred:2lev 1 1024 10 1 memory_tuned_quicksort631048546
	sim-bpred -bpred 2lev -bpred:2lev 1 2048 10 1 memory_tuned_quicksort631048546
	sim-bpred -bpred 2lev -bpred:2lev 1 4096 10 1 memory_tuned_quicksort631048546
	sslittle-na-sstrix-gcc -Wall -O3 -funroll-loops -finline-functions  -DRANDOM_SIZE=65536 -DOFFSET=6 -DSORT=memory_tuned_quicksort sorts/memory_tuned_quicksort1348487333.c simpleMain.c -o memory_tuned_quicksort631048546
	sim-cache -cache:dl1 dl1:256:32:1:l -cache:dl2 dl2:131072:32:1:l -cache:il1 il1:256:32:1:l -cache:il2 dl2 memory_tuned_quicksort631048546
	sim-cache -cache:dl1 dl1:256:32:1:l -cache:dl2 dl2:65536:32:1:l -cache:il1 il1:256:32:1:l -cache:il2 dl2 memory_tuned_quicksort631048546
	sim-cache -cache:dl1 dl1:1:32:256:l -cache:dl2 dl2:1:32:131072:l -cache:il1 il1:1:32:256:l -cache:il2 dl2 memory_tuned_quicksort631048546
	sim-cache -cache:dl1 dl1:1:32:256:l -cache:dl2 dl2:1:32:65536:l -cache:il1 il1:1:32:256:l -cache:il2 dl2 memory_tuned_quicksort631048546
	sim-bpred -bpred bimod -bpred:bimod 512 memory_tuned_quicksort631048546
	sim-bpred -bpred bimod -bpred:bimod 1024 memory_tuned_quicksort631048546
	sim-bpred -bpred bimod -bpred:bimod 2048 memory_tuned_quicksort631048546
	sim-bpred -bpred 2lev -bpred:2lev 1 512 10 1 memory_tuned_quicksort631048546
	sim-bpred -bpred 2lev -bpred:2lev 1 1024 10 1 memory_tuned_quicksort631048546
	sim-bpred -bpred 2lev -bpred:2lev 1 2048 10 1 memory_tuned_quicksort631048546
	sim-bpred -bpred 2lev -bpred:2lev 1 4096 10 1 memory_tuned_quicksort631048546
	sslittle-na-sstrix-gcc -Wall -O3 -funroll-loops -finline-functions  -DRANDOM_SIZE=131072 -DOFFSET=6 -DSORT=memory_tuned_quicksort sorts/memory_tuned_quicksort1348487333.c simpleMain.c -o memory_tuned_quicksort631048546
	sim-cache -cache:dl1 dl1:256:32:1:l -cache:dl2 dl2:131072:32:1:l -cache:il1 il1:256:32:1:l -cache:il2 dl2 memory_tuned_quicksort631048546
	sim-cache -cache:dl1 dl1:256:32:1:l -cache:dl2 dl2:65536:32:1:l -cache:il1 il1:256:32:1:l -cache:il2 dl2 memory_tuned_quicksort631048546
	sim-cache -cache:dl1 dl1:1:32:256:l -cache:dl2 dl2:1:32:131072:l -cache:il1 il1:1:32:256:l -cache:il2 dl2 memory_tuned_quicksort631048546
	sim-cache -cache:dl1 dl1:1:32:256:l -cache:dl2 dl2:1:32:65536:l -cache:il1 il1:1:32:256:l -cache:il2 dl2 memory_tuned_quicksort631048546
	sim-bpred -bpred bimod -bpred:bimod 512 memory_tuned_quicksort631048546
	sim-bpred -bpred bimod -bpred:bimod 1024 memory_tuned_quicksort631048546
	sim-bpred -bpred bimod -bpred:bimod 2048 memory_tuned_quicksort631048546
	sim-bpred -bpred 2lev -bpred:2lev 1 512 10 1 memory_tuned_quicksort631048546
	sim-bpred -bpred 2lev -bpred:2lev 1 1024 10 1 memory_tuned_quicksort631048546
	sim-bpred -bpred 2lev -bpred:2lev 1 2048 10 1 memory_tuned_quicksort631048546
	sim-bpred -bpred 2lev -bpred:2lev 1 4096 10 1 memory_tuned_quicksort631048546
	sslittle-na-sstrix-gcc -Wall -O3 -funroll-loops -finline-functions  -DRANDOM_SIZE=262144 -DOFFSET=6 -DSORT=memory_tuned_quicksort sorts/memory_tuned_quicksort1348487333.c simpleMain.c -o memory_tuned_quicksort631048546
	sim-cache -cache:dl1 dl1:256:32:1:l -cache:dl2 dl2:131072:32:1:l -cache:il1 il1:256:32:1:l -cache:il2 dl2 memory_tuned_quicksort631048546
	sim-cache -cache:dl1 dl1:256:32:1:l -cache:dl2 dl2:65536:32:1:l -cache:il1 il1:256:32:1:l -cache:il2 dl2 memory_tuned_quicksort631048546
	sim-cache -cache:dl1 dl1:1:32:256:l -cache:dl2 dl2:1:32:131072:l -cache:il1 il1:1:32:256:l -cache:il2 dl2 memory_tuned_quicksort631048546
	sim-cache -cache:dl1 dl1:1:32:256:l -cache:dl2 dl2:1:32:65536:l -cache:il1 il1:1:32:256:l -cache:il2 dl2 memory_tuned_quicksort631048546
	sim-bpred -bpred bimod -bpred:bimod 512 memory_tuned_quicksort631048546
	sim-bpred -bpred bimod -bpred:bimod 1024 memory_tuned_quicksort631048546
	sim-bpred -bpred bimod -bpred:bimod 2048 memory_tuned_quicksort631048546
	sim-bpred -bpred 2lev -bpred:2lev 1 512 10 1 memory_tuned_quicksort631048546
	sim-bpred -bpred 2lev -bpred:2lev 1 1024 10 1 memory_tuned_quicksort631048546
	sim-bpred -bpred 2lev -bpred:2lev 1 2048 10 1 memory_tuned_quicksort631048546
	sim-bpred -bpred 2lev -bpred:2lev 1 4096 10 1 memory_tuned_quicksort631048546
	sslittle-na-sstrix-gcc -Wall -O3 -funroll-loops -finline-functions  -DRANDOM_SIZE=524288 -DOFFSET=6 -DSORT=memory_tuned_quicksort sorts/memory_tuned_quicksort1348487333.c simpleMain.c -o memory_tuned_quicksort631048546
	sim-cache -cache:dl1 dl1:256:32:1:l -cache:dl2 dl2:131072:32:1:l -cache:il1 il1:256:32:1:l -cache:il2 dl2 memory_tuned_quicksort631048546
	sim-cache -cache:dl1 dl1:256:32:1:l -cache:dl2 dl2:65536:32:1:l -cache:il1 il1:256:32:1:l -cache:il2 dl2 memory_tuned_quicksort631048546
	sim-cache -cache:dl1 dl1:1:32:256:l -cache:dl2 dl2:1:32:131072:l -cache:il1 il1:1:32:256:l -cache:il2 dl2 memory_tuned_quicksort631048546
	sim-cache -cache:dl1 dl1:1:32:256:l -cache:dl2 dl2:1:32:65536:l -cache:il1 il1:1:32:256:l -cache:il2 dl2 memory_tuned_quicksort631048546
	sim-bpred -bpred bimod -bpred:bimod 512 memory_tuned_quicksort631048546
	sim-bpred -bpred bimod -bpred:bimod 1024 memory_tuned_quicksort631048546
	sim-bpred -bpred bimod -bpred:bimod 2048 memory_tuned_quicksort631048546
	sim-bpred -bpred 2lev -bpred:2lev 1 512 10 1 memory_tuned_quicksort631048546
	sim-bpred -bpred 2lev -bpred:2lev 1 1024 10 1 memory_tuned_quicksort631048546
	sim-bpred -bpred 2lev -bpred:2lev 1 2048 10 1 memory_tuned_quicksort631048546
	sim-bpred -bpred 2lev -bpred:2lev 1 4096 10 1 memory_tuned_quicksort631048546
	sslittle-na-sstrix-gcc -Wall -O3 -funroll-loops -finline-functions  -DRANDOM_SIZE=1048576 -DOFFSET=6 -DSORT=memory_tuned_quicksort sorts/memory_tuned_quicksort1348487333.c simpleMain.c -o memory_tuned_quicksort631048546
	sim-cache -cache:dl1 dl1:256:32:1:l -cache:dl2 dl2:131072:32:1:l -cache:il1 il1:256:32:1:l -cache:il2 dl2 memory_tuned_quicksort631048546
	sim-cache -cache:dl1 dl1:256:32:1:l -cache:dl2 dl2:65536:32:1:l -cache:il1 il1:256:32:1:l -cache:il2 dl2 memory_tuned_quicksort631048546
	sim-cache -cache:dl1 dl1:1:32:256:l -cache:dl2 dl2:1:32:131072:l -cache:il1 il1:1:32:256:l -cache:il2 dl2 memory_tuned_quicksort631048546
	sim-cache -cache:dl1 dl1:1:32:256:l -cache:dl2 dl2:1:32:65536:l -cache:il1 il1:1:32:256:l -cache:il2 dl2 memory_tuned_quicksort631048546
	sim-bpred -bpred bimod -bpred:bimod 512 memory_tuned_quicksort631048546
	sim-bpred -bpred bimod -bpred:bimod 1024 memory_tuned_quicksort631048546
	sim-bpred -bpred bimod -bpred:bimod 2048 memory_tuned_quicksort631048546
	sim-bpred -bpred 2lev -bpred:2lev 1 512 10 1 memory_tuned_quicksort631048546
	sim-bpred -bpred 2lev -bpred:2lev 1 1024 10 1 memory_tuned_quicksort631048546
	sim-bpred -bpred 2lev -bpred:2lev 1 2048 10 1 memory_tuned_quicksort631048546
	sim-bpred -bpred 2lev -bpred:2lev 1 4096 10 1 memory_tuned_quicksort631048546
	sslittle-na-sstrix-gcc -Wall -O3 -funroll-loops -finline-functions  -DRANDOM_SIZE=2097152 -DOFFSET=6 -DSORT=memory_tuned_quicksort sorts/memory_tuned_quicksort1348487333.c simpleMain.c -o memory_tuned_quicksort631048546
	sim-cache -cache:dl1 dl1:256:32:1:l -cache:dl2 dl2:131072:32:1:l -cache:il1 il1:256:32:1:l -cache:il2 dl2 memory_tuned_quicksort631048546
	sim-cache -cache:dl1 dl1:256:32:1:l -cache:dl2 dl2:65536:32:1:l -cache:il1 il1:256:32:1:l -cache:il2 dl2 memory_tuned_quicksort631048546
	sim-cache -cache:dl1 dl1:1:32:256:l -cache:dl2 dl2:1:32:131072:l -cache:il1 il1:1:32:256:l -cache:il2 dl2 memory_tuned_quicksort631048546
	sim-cache -cache:dl1 dl1:1:32:256:l -cache:dl2 dl2:1:32:65536:l -cache:il1 il1:1:32:256:l -cache:il2 dl2 memory_tuned_quicksort631048546
	sim-bpred -bpred bimod -bpred:bimod 512 memory_tuned_quicksort631048546
	sim-bpred -bpred bimod -bpred:bimod 1024 memory_tuned_quicksort631048546
	sim-bpred -bpred bimod -bpred:bimod 2048 memory_tuned_quicksort631048546
	sim-bpred -bpred 2lev -bpred:2lev 1 512 10 1 memory_tuned_quicksort631048546
	sim-bpred -bpred 2lev -bpred:2lev 1 1024 10 1 memory_tuned_quicksort631048546
	sim-bpred -bpred 2lev -bpred:2lev 1 2048 10 1 memory_tuned_quicksort631048546
	sim-bpred -bpred 2lev -bpred:2lev 1 4096 10 1 memory_tuned_quicksort631048546
	sslittle-na-sstrix-gcc -Wall -O3 -funroll-loops -finline-functions  -DRANDOM_SIZE=4194304 -DOFFSET=6 -DSORT=memory_tuned_quicksort sorts/memory_tuned_quicksort1348487333.c simpleMain.c -o memory_tuned_quicksort631048546
	sim-cache -cache:dl1 dl1:256:32:1:l -cache:dl2 dl2:131072:32:1:l -cache:il1 il1:256:32:1:l -cache:il2 dl2 memory_tuned_quicksort631048546
	sim-cache -cache:dl1 dl1:256:32:1:l -cache:dl2 dl2:65536:32:1:l -cache:il1 il1:256:32:1:l -cache:il2 dl2 memory_tuned_quicksort631048546
	sim-cache -cache:dl1 dl1:1:32:256:l -cache:dl2 dl2:1:32:131072:l -cache:il1 il1:1:32:256:l -cache:il2 dl2 memory_tuned_quicksort631048546
	sim-cache -cache:dl1 dl1:1:32:256:l -cache:dl2 dl2:1:32:65536:l -cache:il1 il1:1:32:256:l -cache:il2 dl2 memory_tuned_quicksort631048546
	sim-bpred -bpred bimod -bpred:bimod 512 memory_tuned_quicksort631048546
	sim-bpred -bpred bimod -bpred:bimod 1024 memory_tuned_quicksort631048546
	sim-bpred -bpred bimod -bpred:bimod 2048 memory_tuned_quicksort631048546
	sim-bpred -bpred 2lev -bpred:2lev 1 512 10 1 memory_tuned_quicksort631048546
	sim-bpred -bpred 2lev -bpred:2lev 1 1024 10 1 memory_tuned_quicksort631048546
	sim-bpred -bpred 2lev -bpred:2lev 1 2048 10 1 memory_tuned_quicksort631048546
	sim-bpred -bpred 2lev -bpred:2lev 1 4096 10 1 memory_tuned_quicksort631048546
