Thu Jul 21 16:49:39 2005
Run as: "./do_simple -c 16_byte_cache_line_random.org6 -o 6 -L 16 cache4_heapsort"
-------------------------------------------------------------------------------------------------
sim-cache                                     4096 |         4096 |         4096 |         4096 |         8192 |         8192 |         8192 |         8192 |        16384 |        16384 |        16384 |        16384 |        32768 |        32768 |        32768 |        32768 |        65536 |        65536 |        65536 |        65536 |       131072 |       131072 |       131072 |       131072 |       262144 |       262144 |       262144 |       262144 |       524288 |       524288 |       524288 |       524288 |      1048576 |      1048576 |      1048576 |      1048576 |      2097152 |      2097152 |      2097152 |      2097152 |      4194304 |      4194304 |      4194304 |      4194304 |
-cache:dl1 dl1:512:16:1:l -cache:dl2 dl2:262144:16:1:l -cache:il1 il1:512:16:1:l -cache:il2 dl2
-cache:dl1 dl1:512:16:1:l -cache:dl2 dl2:131072:16:1:l -cache:il1 il1:512:16:1:l -cache:il2 dl2
-cache:dl1 dl1:1:16:512:l -cache:dl2 dl2:1:16:262144:l -cache:il1 il1:1:16:512:l -cache:il2 dl2
-cache:dl1 dl1:1:16:512:l -cache:dl2 dl2:1:16:131072:l -cache:il1 il1:1:16:512:l -cache:il2 dl2
-------------------------------------------------------------------------------------------------
sim_num_insn                                870306 |       870306 |       870306 |       870306 |      1866272 |      1866272 |      1866272 |      1866272 |      4001362 |      4001362 |      4001362 |      4001362 |      8531617 |      8531617 |      8531617 |      8531617 |     18154286 |     18154286 |     18154286 |     18154286 |     38438883 |     38438883 |     38438883 |     38438883 |     81265578 |     81265578 |     81265578 |     81265578 |    171072613 |    171072613 |    171072613 |    171072613 |    359730618 |    359730618 |    359730618 |    359730618 |    753726561 |    753726561 |    753726561 |    753726561 |   1577744791 |   1577744791 |   1577744791 |   1577744791 |
sim_num_refs                                217986 |       217986 |       217986 |       217986 |       464249 |       464249 |       464249 |       464249 |       990970 |       990970 |       990970 |       990970 |      2107883 |      2107883 |      2107883 |      2107883 |      4476742 |      4476742 |      4476742 |      4476742 |      9467673 |      9467673 |      9467673 |      9467673 |     19992005 |     19992005 |     19992005 |     19992005 |     42052295 |     42052295 |     42052295 |     42052295 |     88351844 |     88351844 |     88351844 |     88351844 |    184997005 |    184997005 |    184997005 |    184997005 |    386956857 |    386956857 |    386956857 |    386956857 |
sim_elapsed_time                                 1 |            1 |           38 |           18 |            1 |            1 |           58 |           29 |            1 |            1 |          100 |           50 |            2 |            2 |          180 |           89 |            5 |            5 |          335 |          159 |           11 |           11 |          613 |          270 |           23 |           23 |         1041 |          364 |           49 |           48 |         1403 |          394 |          103 |          103 |         1469 |          461 |          217 |          216 |         1607 |          601 |          456 |          456 |         1902 |          898 |
sim_inst_rate                          870306.0000 |  870306.0000 |   22902.7895 |   48350.3333 | 1866272.0000 | 1866272.0000 |   32177.1034 |   64354.2069 | 4001362.0000 | 4001362.0000 |   40013.6200 |   80027.2400 | 4265808.5000 | 4265808.5000 |   47397.8722 |   95860.8652 | 3630857.2000 | 3630857.2000 |   54191.8985 |  114177.8994 | 3494443.9091 | 3494443.9091 |   62706.1713 |  142366.2333 | 3533286.0000 | 3533286.0000 |   78064.9164 |  223257.0824 | 3491277.8163 | 3564012.7708 |  121933.4376 |  434194.4492 | 3492530.2718 | 3492530.2718 |  244881.2920 |  780326.7202 | 3473394.2903 | 3489474.8194 |  469027.1070 | 1254120.7338 | 3459966.6469 | 3459966.6469 |  829518.8176 | 1756954.1102 |
il1.accesses                                870306 |       870306 |       870306 |       870306 |      1866272 |      1866272 |      1866272 |      1866272 |      4001362 |      4001362 |      4001362 |      4001362 |      8531617 |      8531617 |      8531617 |      8531617 |     18154286 |     18154286 |     18154286 |     18154286 |     38438883 |     38438883 |     38438883 |     38438883 |     81265578 |     81265578 |     81265578 |     81265578 |    171072613 |    171072613 |    171072613 |    171072613 |    359730618 |    359730618 |    359730618 |    359730618 |    753726561 |    753726561 |    753726561 |    753726561 |   1577744791 |   1577744791 |   1577744791 |   1577744791 |
il1.hits                                    869380 |       869380 |       869534 |       869534 |      1865292 |      1865292 |      1865511 |      1865511 |      4000380 |      4000380 |      4000600 |      4000600 |      8530636 |      8530636 |      8530853 |      8530853 |     18153305 |     18153305 |     18153522 |     18153522 |     38437902 |     38437902 |     38438120 |     38438120 |     81264597 |     81264597 |     81264815 |     81264815 |    171071632 |    171071632 |    171071850 |    171071850 |    359729564 |    359729564 |    359729731 |    359729731 |    753725507 |    753725507 |    753725674 |    753725674 |   1577743737 |   1577743737 |   1577743904 |   1577743904 |
il1.misses                                     926 |          926 |          772 |          772 |          980 |          980 |          761 |          761 |          982 |          982 |          762 |          762 |          981 |          981 |          764 |          764 |          981 |          981 |          764 |          764 |          981 |          981 |          763 |          763 |          981 |          981 |          763 |          763 |          981 |          981 |          763 |          763 |         1054 |         1054 |          887 |          887 |         1054 |         1054 |          887 |          887 |         1054 |         1054 |          887 |          887 |
il1.replacements                               509 |          509 |          260 |          260 |          551 |          551 |          249 |          249 |          553 |          553 |          250 |          250 |          552 |          552 |          252 |          252 |          552 |          552 |          252 |          252 |          552 |          552 |          251 |          251 |          552 |          552 |          251 |          251 |          552 |          552 |          251 |          251 |          629 |          629 |          375 |          375 |          629 |          629 |          375 |          375 |          629 |          629 |          375 |          375 |
il1.writebacks                                   0 |            0 |            0 |            0 |            0 |            0 |            0 |            0 |            0 |            0 |            0 |            0 |            0 |            0 |            0 |            0 |            0 |            0 |            0 |            0 |            0 |            0 |            0 |            0 |            0 |            0 |            0 |            0 |            0 |            0 |            0 |            0 |            0 |            0 |            0 |            0 |            0 |            0 |            0 |            0 |            0 |            0 |            0 |            0 |
il1.invalidations                                0 |            0 |            0 |            0 |            0 |            0 |            0 |            0 |            0 |            0 |            0 |            0 |            0 |            0 |            0 |            0 |            0 |            0 |            0 |            0 |            0 |            0 |            0 |            0 |            0 |            0 |            0 |            0 |            0 |            0 |            0 |            0 |            0 |            0 |            0 |            0 |            0 |            0 |            0 |            0 |            0 |            0 |            0 |            0 |
il1.miss_rate                               0.0011 |       0.0011 |       0.0009 |       0.0009 |       0.0005 |       0.0005 |       0.0004 |       0.0004 |       0.0002 |       0.0002 |       0.0002 |       0.0002 |       0.0001 |       0.0001 |       0.0001 |       0.0001 |       0.0001 |       0.0001 |       0.0000 |       0.0000 |       0.0000 |       0.0000 |       0.0000 |       0.0000 |       0.0000 |       0.0000 |       0.0000 |       0.0000 |       0.0000 |       0.0000 |       0.0000 |       0.0000 |       0.0000 |       0.0000 |       0.0000 |       0.0000 |       0.0000 |       0.0000 |       0.0000 |       0.0000 |       0.0000 |       0.0000 |       0.0000 |       0.0000 |
il1.repl_rate                               0.0006 |       0.0006 |       0.0003 |       0.0003 |       0.0003 |       0.0003 |       0.0001 |       0.0001 |       0.0001 |       0.0001 |       0.0001 |       0.0001 |       0.0001 |       0.0001 |       0.0000 |       0.0000 |       0.0000 |       0.0000 |       0.0000 |       0.0000 |       0.0000 |       0.0000 |       0.0000 |       0.0000 |       0.0000 |       0.0000 |       0.0000 |       0.0000 |       0.0000 |       0.0000 |       0.0000 |       0.0000 |       0.0000 |       0.0000 |       0.0000 |       0.0000 |       0.0000 |       0.0000 |       0.0000 |       0.0000 |       0.0000 |       0.0000 |       0.0000 |       0.0000 |
il1.wb_rate                                 0.0000 |       0.0000 |       0.0000 |       0.0000 |       0.0000 |       0.0000 |       0.0000 |       0.0000 |       0.0000 |       0.0000 |       0.0000 |       0.0000 |       0.0000 |       0.0000 |       0.0000 |       0.0000 |       0.0000 |       0.0000 |       0.0000 |       0.0000 |       0.0000 |       0.0000 |       0.0000 |       0.0000 |       0.0000 |       0.0000 |       0.0000 |       0.0000 |       0.0000 |       0.0000 |       0.0000 |       0.0000 |       0.0000 |       0.0000 |       0.0000 |       0.0000 |       0.0000 |       0.0000 |       0.0000 |       0.0000 |       0.0000 |       0.0000 |       0.0000 |       0.0000 |
il1.inv_rate                                0.0000 |       0.0000 |       0.0000 |       0.0000 |       0.0000 |       0.0000 |       0.0000 |       0.0000 |       0.0000 |       0.0000 |       0.0000 |       0.0000 |       0.0000 |       0.0000 |       0.0000 |       0.0000 |       0.0000 |       0.0000 |       0.0000 |       0.0000 |       0.0000 |       0.0000 |       0.0000 |       0.0000 |       0.0000 |       0.0000 |       0.0000 |       0.0000 |       0.0000 |       0.0000 |       0.0000 |       0.0000 |       0.0000 |       0.0000 |       0.0000 |       0.0000 |       0.0000 |       0.0000 |       0.0000 |       0.0000 |       0.0000 |       0.0000 |       0.0000 |       0.0000 |
dl1.accesses                                234452 |       234452 |       234452 |       234452 |       497099 |       497099 |       497099 |       497099 |      1056588 |      1056588 |      1056588 |      1056588 |      2239037 |      2239037 |      2239037 |      2239037 |      4738968 |      4738968 |      4738968 |      4738968 |      9992043 |      9992043 |      9992043 |      9992043 |     21040663 |     21040663 |     21040663 |     21040663 |     44149529 |     44149529 |     44149529 |     44149529 |     92546230 |     92546230 |     92546230 |     92546230 |    193385695 |    193385695 |    193385695 |    193385695 |    403734155 |    403734155 |    403734155 |    403734155 |
dl1.hits                                    226418 |       226418 |       226900 |       226900 |       477564 |       477564 |       478688 |       478688 |      1007881 |      1007881 |      1011088 |      1011088 |      2123132 |      2123132 |      2129541 |      2129541 |      4466037 |      4466037 |      4482554 |      4482554 |      9370297 |      9370297 |      9403029 |      9403029 |     19636366 |     19636366 |     19710279 |     19710279 |     41039253 |     41039253 |     41187140 |     41187140 |     85691412 |     85691412 |     86024252 |     86024252 |    178496977 |    178496977 |    179157293 |    179157293 |    371515402 |    371515402 |    372938967 |    372938967 |
dl1.misses                                    8034 |         8034 |         7552 |         7552 |        19535 |        19535 |        18411 |        18411 |        48707 |        48707 |        45500 |        45500 |       115905 |       115905 |       109496 |       109496 |       272931 |       272931 |       256414 |       256414 |       621746 |       621746 |       589014 |       589014 |      1404297 |      1404297 |      1330384 |      1330384 |      3110276 |      3110276 |      2962389 |      2962389 |      6854818 |      6854818 |      6521978 |      6521978 |     14888718 |     14888718 |     14228402 |     14228402 |     32218753 |     32218753 |     30795188 |     30795188 |
dl1.replacements                              7522 |         7522 |         7040 |         7040 |        19023 |        19023 |        17899 |        17899 |        48195 |        48195 |        44988 |        44988 |       115393 |       115393 |       108984 |       108984 |       272419 |       272419 |       255902 |       255902 |       621234 |       621234 |       588502 |       588502 |      1403785 |      1403785 |      1329872 |      1329872 |      3109764 |      3109764 |      2961877 |      2961877 |      6854306 |      6854306 |      6521466 |      6521466 |     14888206 |     14888206 |     14227890 |     14227890 |     32218241 |     32218241 |     30794676 |     30794676 |
dl1.writebacks                                6381 |         6381 |         5904 |         5904 |        16512 |        16512 |        15460 |        15460 |        42879 |        42879 |        39818 |        39818 |       104350 |       104350 |        98380 |        98380 |       249456 |       249456 |       234003 |       234003 |       574733 |       574733 |       544412 |       544412 |      1309487 |      1309487 |      1240885 |      1240885 |      2919844 |      2919844 |      2783499 |      2783499 |      6469593 |      6469593 |      6163250 |      6163250 |     14118215 |     14118215 |     13512744 |     13512744 |     30669759 |     30669759 |     29362503 |     29362503 |
dl1.invalidations                                0 |            0 |            0 |            0 |            0 |            0 |            0 |            0 |            0 |            0 |            0 |            0 |            0 |            0 |            0 |            0 |            0 |            0 |            0 |            0 |            0 |            0 |            0 |            0 |            0 |            0 |            0 |            0 |            0 |            0 |            0 |            0 |            0 |            0 |            0 |            0 |            0 |            0 |            0 |            0 |            0 |            0 |            0 |            0 |
dl1.miss_rate                               0.0343 |       0.0343 |       0.0322 |       0.0322 |       0.0393 |       0.0393 |       0.0370 |       0.0370 |       0.0461 |       0.0461 |       0.0431 |       0.0431 |       0.0518 |       0.0518 |       0.0489 |       0.0489 |       0.0576 |       0.0576 |       0.0541 |       0.0541 |       0.0622 |       0.0622 |       0.0589 |       0.0589 |       0.0667 |       0.0667 |       0.0632 |       0.0632 |       0.0704 |       0.0704 |       0.0671 |       0.0671 |       0.0741 |       0.0741 |       0.0705 |       0.0705 |       0.0770 |       0.0770 |       0.0736 |       0.0736 |       0.0798 |       0.0798 |       0.0763 |       0.0763 |
dl1.repl_rate                               0.0321 |       0.0321 |       0.0300 |       0.0300 |       0.0383 |       0.0383 |       0.0360 |       0.0360 |       0.0456 |       0.0456 |       0.0426 |       0.0426 |       0.0515 |       0.0515 |       0.0487 |       0.0487 |       0.0575 |       0.0575 |       0.0540 |       0.0540 |       0.0622 |       0.0622 |       0.0589 |       0.0589 |       0.0667 |       0.0667 |       0.0632 |       0.0632 |       0.0704 |       0.0704 |       0.0671 |       0.0671 |       0.0741 |       0.0741 |       0.0705 |       0.0705 |       0.0770 |       0.0770 |       0.0736 |       0.0736 |       0.0798 |       0.0798 |       0.0763 |       0.0763 |
dl1.wb_rate                                 0.0272 |       0.0272 |       0.0252 |       0.0252 |       0.0332 |       0.0332 |       0.0311 |       0.0311 |       0.0406 |       0.0406 |       0.0377 |       0.0377 |       0.0466 |       0.0466 |       0.0439 |       0.0439 |       0.0526 |       0.0526 |       0.0494 |       0.0494 |       0.0575 |       0.0575 |       0.0545 |       0.0545 |       0.0622 |       0.0622 |       0.0590 |       0.0590 |       0.0661 |       0.0661 |       0.0630 |       0.0630 |       0.0699 |       0.0699 |       0.0666 |       0.0666 |       0.0730 |       0.0730 |       0.0699 |       0.0699 |       0.0760 |       0.0760 |       0.0727 |       0.0727 |
dl1.inv_rate                                0.0000 |       0.0000 |       0.0000 |       0.0000 |       0.0000 |       0.0000 |       0.0000 |       0.0000 |       0.0000 |       0.0000 |       0.0000 |       0.0000 |       0.0000 |       0.0000 |       0.0000 |       0.0000 |       0.0000 |       0.0000 |       0.0000 |       0.0000 |       0.0000 |       0.0000 |       0.0000 |       0.0000 |       0.0000 |       0.0000 |       0.0000 |       0.0000 |       0.0000 |       0.0000 |       0.0000 |       0.0000 |       0.0000 |       0.0000 |       0.0000 |       0.0000 |       0.0000 |       0.0000 |       0.0000 |       0.0000 |       0.0000 |       0.0000 |       0.0000 |       0.0000 |
dl2.accesses                                 15341 |        15341 |        14228 |        14228 |        37027 |        37027 |        34632 |        34632 |        92568 |        92568 |        86080 |        86080 |       221236 |       221236 |       208640 |       208640 |       523368 |       523368 |       491181 |       491181 |      1197460 |      1197460 |      1134189 |      1134189 |      2714765 |      2714765 |      2572032 |      2572032 |      6031101 |      6031101 |      5746651 |      5746651 |     13325465 |     13325465 |     12686115 |     12686115 |     29007987 |     29007987 |     27742033 |     27742033 |     62889566 |     62889566 |     60158578 |     60158578 |
dl2.hits                                     11632 |        11632 |        10589 |        10589 |        31269 |        31269 |        28963 |        28963 |        82700 |        82700 |        76314 |        76314 |       203173 |       203173 |       190680 |       190680 |       488921 |       488921 |       456837 |       456837 |      1130246 |      1130246 |      1067078 |      1067078 |      2582013 |      2577005 |      2439385 |      2394762 |      5762271 |      5319522 |      5400782 |      5093044 |     11897857 |     11484269 |     11378759 |     10972287 |     25324661 |     24288798 |     24315588 |     23241610 |     53450735 |     50878872 |     51154761 |     48772566 |
dl2.misses                                    3709 |         3709 |         3639 |         3639 |         5758 |         5758 |         5669 |         5669 |         9868 |         9868 |         9766 |         9766 |        18063 |        18063 |        17960 |        17960 |        34447 |        34447 |        34344 |        34344 |        67214 |        67214 |        67111 |        67111 |       132752 |       137760 |       132647 |       177270 |       268830 |       711579 |       345869 |       653607 |      1427608 |      1841196 |      1307356 |      1713828 |      3683326 |      4719189 |      3426445 |      4500423 |      9438831 |     12010694 |      9003817 |     11386012 |
dl2.replacements                               468 |          468 |            0 |            0 |          458 |          458 |            0 |            0 |          516 |          516 |            0 |            0 |          517 |          517 |            0 |            0 |          517 |          517 |            0 |            0 |          517 |          517 |            0 |            0 |          519 |         8873 |            0 |        46198 |         8871 |       580507 |        83725 |       522535 |      1165464 |      1710124 |      1045212 |      1582756 |      3421182 |      4588117 |      3164301 |      4369351 |      9176687 |     11879622 |      8741673 |     11254940 |
dl2.writebacks                                 264 |          264 |            0 |            0 |          247 |          247 |            0 |            0 |          291 |          291 |            0 |            0 |          289 |          289 |            0 |            0 |          289 |          289 |            0 |            0 |          289 |          289 |            0 |            0 |          289 |         8643 |            0 |        44804 |         8643 |       452939 |        82331 |       389148 |       908578 |      1427665 |       778545 |      1296041 |      2857026 |      3971201 |      2591275 |      3747394 |      7942679 |     10565377 |      7496883 |      9935134 |
dl2.invalidations                                0 |            0 |            0 |            0 |            0 |            0 |            0 |            0 |            0 |            0 |            0 |            0 |            0 |            0 |            0 |            0 |            0 |            0 |            0 |            0 |            0 |            0 |            0 |            0 |            0 |            0 |            0 |            0 |            0 |            0 |            0 |            0 |            0 |            0 |            0 |            0 |            0 |            0 |            0 |            0 |            0 |            0 |            0 |            0 |
dl2.miss_rate                               0.2418 |       0.2418 |       0.2558 |       0.2558 |       0.1555 |       0.1555 |       0.1637 |       0.1637 |       0.1066 |       0.1066 |       0.1135 |       0.1135 |       0.0816 |       0.0816 |       0.0861 |       0.0861 |       0.0658 |       0.0658 |       0.0699 |       0.0699 |       0.0561 |       0.0561 |       0.0592 |       0.0592 |       0.0489 |       0.0507 |       0.0516 |       0.0689 |       0.0446 |       0.1180 |       0.0602 |       0.1137 |       0.1071 |       0.1382 |       0.1031 |       0.1351 |       0.1270 |       0.1627 |       0.1235 |       0.1622 |       0.1501 |       0.1910 |       0.1497 |       0.1893 |
dl2.repl_rate                               0.0305 |       0.0305 |       0.0000 |       0.0000 |       0.0124 |       0.0124 |       0.0000 |       0.0000 |       0.0056 |       0.0056 |       0.0000 |       0.0000 |       0.0023 |       0.0023 |       0.0000 |       0.0000 |       0.0010 |       0.0010 |       0.0000 |       0.0000 |       0.0004 |       0.0004 |       0.0000 |       0.0000 |       0.0002 |       0.0033 |       0.0000 |       0.0180 |       0.0015 |       0.0963 |       0.0146 |       0.0909 |       0.0875 |       0.1283 |       0.0824 |       0.1248 |       0.1179 |       0.1582 |       0.1141 |       0.1575 |       0.1459 |       0.1889 |       0.1453 |       0.1871 |
dl2.wb_rate                                 0.0172 |       0.0172 |       0.0000 |       0.0000 |       0.0067 |       0.0067 |       0.0000 |       0.0000 |       0.0031 |       0.0031 |       0.0000 |       0.0000 |       0.0013 |       0.0013 |       0.0000 |       0.0000 |       0.0006 |       0.0006 |       0.0000 |       0.0000 |       0.0002 |       0.0002 |       0.0000 |       0.0000 |       0.0001 |       0.0032 |       0.0000 |       0.0174 |       0.0014 |       0.0751 |       0.0143 |       0.0677 |       0.0682 |       0.1071 |       0.0614 |       0.1022 |       0.0985 |       0.1369 |       0.0934 |       0.1351 |       0.1263 |       0.1680 |       0.1246 |       0.1651 |
dl2.inv_rate                                0.0000 |       0.0000 |       0.0000 |       0.0000 |       0.0000 |       0.0000 |       0.0000 |       0.0000 |       0.0000 |       0.0000 |       0.0000 |       0.0000 |       0.0000 |       0.0000 |       0.0000 |       0.0000 |       0.0000 |       0.0000 |       0.0000 |       0.0000 |       0.0000 |       0.0000 |       0.0000 |       0.0000 |       0.0000 |       0.0000 |       0.0000 |       0.0000 |       0.0000 |       0.0000 |       0.0000 |       0.0000 |       0.0000 |       0.0000 |       0.0000 |       0.0000 |       0.0000 |       0.0000 |       0.0000 |       0.0000 |       0.0000 |       0.0000 |       0.0000 |       0.0000 |
itlb.accesses                               870306 |       870306 |       870306 |       870306 |      1866272 |      1866272 |      1866272 |      1866272 |      4001362 |      4001362 |      4001362 |      4001362 |      8531617 |      8531617 |      8531617 |      8531617 |     18154286 |     18154286 |     18154286 |     18154286 |     38438883 |     38438883 |     38438883 |     38438883 |     81265578 |     81265578 |     81265578 |     81265578 |    171072613 |    171072613 |    171072613 |    171072613 |    359730618 |    359730618 |    359730618 |    359730618 |    753726561 |    753726561 |    753726561 |    753726561 |   1577744791 |   1577744791 |   1577744791 |   1577744791 |
itlb.hits                                   870297 |       870297 |       870297 |       870297 |      1866263 |      1866263 |      1866263 |      1866263 |      4001353 |      4001353 |      4001353 |      4001353 |      8531608 |      8531608 |      8531608 |      8531608 |     18154277 |     18154277 |     18154277 |     18154277 |     38438874 |     38438874 |     38438874 |     38438874 |     81265569 |     81265569 |     81265569 |     81265569 |    171072604 |    171072604 |    171072604 |    171072604 |    359730609 |    359730609 |    359730609 |    359730609 |    753726552 |    753726552 |    753726552 |    753726552 |   1577744782 |   1577744782 |   1577744782 |   1577744782 |
itlb.misses                                      9 |            9 |            9 |            9 |            9 |            9 |            9 |            9 |            9 |            9 |            9 |            9 |            9 |            9 |            9 |            9 |            9 |            9 |            9 |            9 |            9 |            9 |            9 |            9 |            9 |            9 |            9 |            9 |            9 |            9 |            9 |            9 |            9 |            9 |            9 |            9 |            9 |            9 |            9 |            9 |            9 |            9 |            9 |            9 |
itlb.replacements                                0 |            0 |            0 |            0 |            0 |            0 |            0 |            0 |            0 |            0 |            0 |            0 |            0 |            0 |            0 |            0 |            0 |            0 |            0 |            0 |            0 |            0 |            0 |            0 |            0 |            0 |            0 |            0 |            0 |            0 |            0 |            0 |            0 |            0 |            0 |            0 |            0 |            0 |            0 |            0 |            0 |            0 |            0 |            0 |
itlb.writebacks                                  0 |            0 |            0 |            0 |            0 |            0 |            0 |            0 |            0 |            0 |            0 |            0 |            0 |            0 |            0 |            0 |            0 |            0 |            0 |            0 |            0 |            0 |            0 |            0 |            0 |            0 |            0 |            0 |            0 |            0 |            0 |            0 |            0 |            0 |            0 |            0 |            0 |            0 |            0 |            0 |            0 |            0 |            0 |            0 |
itlb.invalidations                               0 |            0 |            0 |            0 |            0 |            0 |            0 |            0 |            0 |            0 |            0 |            0 |            0 |            0 |            0 |            0 |            0 |            0 |            0 |            0 |            0 |            0 |            0 |            0 |            0 |            0 |            0 |            0 |            0 |            0 |            0 |            0 |            0 |            0 |            0 |            0 |            0 |            0 |            0 |            0 |            0 |            0 |            0 |            0 |
itlb.miss_rate                              0.0000 |       0.0000 |       0.0000 |       0.0000 |       0.0000 |       0.0000 |       0.0000 |       0.0000 |       0.0000 |       0.0000 |       0.0000 |       0.0000 |       0.0000 |       0.0000 |       0.0000 |       0.0000 |       0.0000 |       0.0000 |       0.0000 |       0.0000 |       0.0000 |       0.0000 |       0.0000 |       0.0000 |       0.0000 |       0.0000 |       0.0000 |       0.0000 |       0.0000 |       0.0000 |       0.0000 |       0.0000 |       0.0000 |       0.0000 |       0.0000 |       0.0000 |       0.0000 |       0.0000 |       0.0000 |       0.0000 |       0.0000 |       0.0000 |       0.0000 |       0.0000 |
itlb.repl_rate                              0.0000 |       0.0000 |       0.0000 |       0.0000 |       0.0000 |       0.0000 |       0.0000 |       0.0000 |       0.0000 |       0.0000 |       0.0000 |       0.0000 |       0.0000 |       0.0000 |       0.0000 |       0.0000 |       0.0000 |       0.0000 |       0.0000 |       0.0000 |       0.0000 |       0.0000 |       0.0000 |       0.0000 |       0.0000 |       0.0000 |       0.0000 |       0.0000 |       0.0000 |       0.0000 |       0.0000 |       0.0000 |       0.0000 |       0.0000 |       0.0000 |       0.0000 |       0.0000 |       0.0000 |       0.0000 |       0.0000 |       0.0000 |       0.0000 |       0.0000 |       0.0000 |
itlb.wb_rate                                0.0000 |       0.0000 |       0.0000 |       0.0000 |       0.0000 |       0.0000 |       0.0000 |       0.0000 |       0.0000 |       0.0000 |       0.0000 |       0.0000 |       0.0000 |       0.0000 |       0.0000 |       0.0000 |       0.0000 |       0.0000 |       0.0000 |       0.0000 |       0.0000 |       0.0000 |       0.0000 |       0.0000 |       0.0000 |       0.0000 |       0.0000 |       0.0000 |       0.0000 |       0.0000 |       0.0000 |       0.0000 |       0.0000 |       0.0000 |       0.0000 |       0.0000 |       0.0000 |       0.0000 |       0.0000 |       0.0000 |       0.0000 |       0.0000 |       0.0000 |       0.0000 |
itlb.inv_rate                               0.0000 |       0.0000 |       0.0000 |       0.0000 |       0.0000 |       0.0000 |       0.0000 |       0.0000 |       0.0000 |       0.0000 |       0.0000 |       0.0000 |       0.0000 |       0.0000 |       0.0000 |       0.0000 |       0.0000 |       0.0000 |       0.0000 |       0.0000 |       0.0000 |       0.0000 |       0.0000 |       0.0000 |       0.0000 |       0.0000 |       0.0000 |       0.0000 |       0.0000 |       0.0000 |       0.0000 |       0.0000 |       0.0000 |       0.0000 |       0.0000 |       0.0000 |       0.0000 |       0.0000 |       0.0000 |       0.0000 |       0.0000 |       0.0000 |       0.0000 |       0.0000 |
dtlb.accesses                               234452 |       234452 |       234452 |       234452 |       497099 |       497099 |       497099 |       497099 |      1056588 |      1056588 |      1056588 |      1056588 |      2239037 |      2239037 |      2239037 |      2239037 |      4738968 |      4738968 |      4738968 |      4738968 |      9992043 |      9992043 |      9992043 |      9992043 |     21040663 |     21040663 |     21040663 |     21040663 |     44149529 |     44149529 |     44149529 |     44149529 |     92546230 |     92546230 |     92546230 |     92546230 |    193385695 |    193385695 |    193385695 |    193385695 |    403734155 |    403734155 |    403734155 |    403734155 |
dtlb.hits                                   234436 |       234436 |       234436 |       234436 |       497075 |       497075 |       497075 |       497075 |      1056548 |      1056548 |      1056548 |      1056548 |      2238965 |      2238965 |      2238965 |      2238965 |      4738821 |      4738821 |      4738821 |      4738821 |      9991207 |      9991207 |      9991207 |      9991207 |     20983436 |     20983436 |     20983436 |     20983436 |     43798516 |     43798516 |     43798516 |     43798516 |     91252703 |     91252703 |     91252703 |     91252703 |    189532531 |    189532531 |    189532531 |    189532531 |    393435723 |    393435723 |    393435723 |    393435723 |
dtlb.misses                                     16 |           16 |           16 |           16 |           24 |           24 |           24 |           24 |           40 |           40 |           40 |           40 |           72 |           72 |           72 |           72 |          147 |          147 |          147 |          147 |          836 |          836 |          836 |          836 |        57227 |        57227 |        57227 |        57227 |       351013 |       351013 |       351013 |       351013 |      1293527 |      1293527 |      1293527 |      1293527 |      3853164 |      3853164 |      3853164 |      3853164 |     10298432 |     10298432 |     10298432 |     10298432 |
dtlb.replacements                                0 |            0 |            0 |            0 |            0 |            0 |            0 |            0 |            0 |            0 |            0 |            0 |            0 |            0 |            0 |            0 |           19 |           19 |           19 |           19 |          708 |          708 |          708 |          708 |        57099 |        57099 |        57099 |        57099 |       350885 |       350885 |       350885 |       350885 |      1293399 |      1293399 |      1293399 |      1293399 |      3853036 |      3853036 |      3853036 |      3853036 |     10298304 |     10298304 |     10298304 |     10298304 |
dtlb.writebacks                                  0 |            0 |            0 |            0 |            0 |            0 |            0 |            0 |            0 |            0 |            0 |            0 |            0 |            0 |            0 |            0 |           16 |           16 |           16 |           16 |          576 |          576 |          576 |          576 |        54017 |        54017 |        54017 |        54017 |       332197 |       332197 |       332197 |       332197 |      1233690 |      1233690 |      1233690 |      1233690 |      3703782 |      3703782 |      3703782 |      3703782 |      9960234 |      9960234 |      9960234 |      9960234 |
dtlb.invalidations                               0 |            0 |            0 |            0 |            0 |            0 |            0 |            0 |            0 |            0 |            0 |            0 |            0 |            0 |            0 |            0 |            0 |            0 |            0 |            0 |            0 |            0 |            0 |            0 |            0 |            0 |            0 |            0 |            0 |            0 |            0 |            0 |            0 |            0 |            0 |            0 |            0 |            0 |            0 |            0 |            0 |            0 |            0 |            0 |
dtlb.miss_rate                              0.0001 |       0.0001 |       0.0001 |       0.0001 |       0.0000 |       0.0000 |       0.0000 |       0.0000 |       0.0000 |       0.0000 |       0.0000 |       0.0000 |       0.0000 |       0.0000 |       0.0000 |       0.0000 |       0.0000 |       0.0000 |       0.0000 |       0.0000 |       0.0001 |       0.0001 |       0.0001 |       0.0001 |       0.0027 |       0.0027 |       0.0027 |       0.0027 |       0.0080 |       0.0080 |       0.0080 |       0.0080 |       0.0140 |       0.0140 |       0.0140 |       0.0140 |       0.0199 |       0.0199 |       0.0199 |       0.0199 |       0.0255 |       0.0255 |       0.0255 |       0.0255 |
dtlb.repl_rate                              0.0000 |       0.0000 |       0.0000 |       0.0000 |       0.0000 |       0.0000 |       0.0000 |       0.0000 |       0.0000 |       0.0000 |       0.0000 |       0.0000 |       0.0000 |       0.0000 |       0.0000 |       0.0000 |       0.0000 |       0.0000 |       0.0000 |       0.0000 |       0.0001 |       0.0001 |       0.0001 |       0.0001 |       0.0027 |       0.0027 |       0.0027 |       0.0027 |       0.0079 |       0.0079 |       0.0079 |       0.0079 |       0.0140 |       0.0140 |       0.0140 |       0.0140 |       0.0199 |       0.0199 |       0.0199 |       0.0199 |       0.0255 |       0.0255 |       0.0255 |       0.0255 |
dtlb.wb_rate                                0.0000 |       0.0000 |       0.0000 |       0.0000 |       0.0000 |       0.0000 |       0.0000 |       0.0000 |       0.0000 |       0.0000 |       0.0000 |       0.0000 |       0.0000 |       0.0000 |       0.0000 |       0.0000 |       0.0000 |       0.0000 |       0.0000 |       0.0000 |       0.0001 |       0.0001 |       0.0001 |       0.0001 |       0.0026 |       0.0026 |       0.0026 |       0.0026 |       0.0075 |       0.0075 |       0.0075 |       0.0075 |       0.0133 |       0.0133 |       0.0133 |       0.0133 |       0.0192 |       0.0192 |       0.0192 |       0.0192 |       0.0247 |       0.0247 |       0.0247 |       0.0247 |
dtlb.inv_rate                               0.0000 |       0.0000 |       0.0000 |       0.0000 |       0.0000 |       0.0000 |       0.0000 |       0.0000 |       0.0000 |       0.0000 |       0.0000 |       0.0000 |       0.0000 |       0.0000 |       0.0000 |       0.0000 |       0.0000 |       0.0000 |       0.0000 |       0.0000 |       0.0000 |       0.0000 |       0.0000 |       0.0000 |       0.0000 |       0.0000 |       0.0000 |       0.0000 |       0.0000 |       0.0000 |       0.0000 |       0.0000 |       0.0000 |       0.0000 |       0.0000 |       0.0000 |       0.0000 |       0.0000 |       0.0000 |       0.0000 |       0.0000 |       0.0000 |       0.0000 |       0.0000 |
ld_text_base                            0x00400000 |   0x00400000 |   0x00400000 |   0x00400000 |   0x00400000 |   0x00400000 |   0x00400000 |   0x00400000 |   0x00400000 |   0x00400000 |   0x00400000 |   0x00400000 |   0x00400000 |   0x00400000 |   0x00400000 |   0x00400000 |   0x00400000 |   0x00400000 |   0x00400000 |   0x00400000 |   0x00400000 |   0x00400000 |   0x00400000 |   0x00400000 |   0x00400000 |   0x00400000 |   0x00400000 |   0x00400000 |   0x00400000 |   0x00400000 |   0x00400000 |   0x00400000 |   0x00400000 |   0x00400000 |   0x00400000 |   0x00400000 |   0x00400000 |   0x00400000 |   0x00400000 |   0x00400000 |   0x00400000 |   0x00400000 |   0x00400000 |   0x00400000 |
ld_text_size                                 74304 |        74304 |        74304 |        74304 |        74336 |        74336 |        74336 |        74336 |        74352 |        74352 |        74352 |        74352 |        74368 |        74368 |        74368 |        74368 |        74368 |        74368 |        74368 |        74368 |        74368 |        74368 |        74368 |        74368 |        74368 |        74368 |        74368 |        74368 |        74368 |        74368 |        74368 |        74368 |        74368 |        74368 |        74368 |        74368 |        74368 |        74368 |        74368 |        74368 |        74368 |        74368 |        74368 |        74368 |
ld_data_base                            0x10000000 |   0x10000000 |   0x10000000 |   0x10000000 |   0x10000000 |   0x10000000 |   0x10000000 |   0x10000000 |   0x10000000 |   0x10000000 |   0x10000000 |   0x10000000 |   0x10000000 |   0x10000000 |   0x10000000 |   0x10000000 |   0x10000000 |   0x10000000 |   0x10000000 |   0x10000000 |   0x10000000 |   0x10000000 |   0x10000000 |   0x10000000 |   0x10000000 |   0x10000000 |   0x10000000 |   0x10000000 |   0x10000000 |   0x10000000 |   0x10000000 |   0x10000000 |   0x10000000 |   0x10000000 |   0x10000000 |   0x10000000 |   0x10000000 |   0x10000000 |   0x10000000 |   0x10000000 |   0x10000000 |   0x10000000 |   0x10000000 |   0x10000000 |
ld_data_size                                  8192 |         8192 |         8192 |         8192 |         8192 |         8192 |         8192 |         8192 |         8192 |         8192 |         8192 |         8192 |         8192 |         8192 |         8192 |         8192 |         8192 |         8192 |         8192 |         8192 |         8192 |         8192 |         8192 |         8192 |         8192 |         8192 |         8192 |         8192 |         8192 |         8192 |         8192 |         8192 |         8192 |         8192 |         8192 |         8192 |         8192 |         8192 |         8192 |         8192 |         8192 |         8192 |         8192 |         8192 |
ld_stack_base                           0x7fffc000 |   0x7fffc000 |   0x7fffc000 |   0x7fffc000 |   0x7fffc000 |   0x7fffc000 |   0x7fffc000 |   0x7fffc000 |   0x7fffc000 |   0x7fffc000 |   0x7fffc000 |   0x7fffc000 |   0x7fffc000 |   0x7fffc000 |   0x7fffc000 |   0x7fffc000 |   0x7fffc000 |   0x7fffc000 |   0x7fffc000 |   0x7fffc000 |   0x7fffc000 |   0x7fffc000 |   0x7fffc000 |   0x7fffc000 |   0x7fffc000 |   0x7fffc000 |   0x7fffc000 |   0x7fffc000 |   0x7fffc000 |   0x7fffc000 |   0x7fffc000 |   0x7fffc000 |   0x7fffc000 |   0x7fffc000 |   0x7fffc000 |   0x7fffc000 |   0x7fffc000 |   0x7fffc000 |   0x7fffc000 |   0x7fffc000 |   0x7fffc000 |   0x7fffc000 |   0x7fffc000 |   0x7fffc000 |
ld_stack_size                                16384 |        16384 |        16384 |        16384 |        16384 |        16384 |        16384 |        16384 |        16384 |        16384 |        16384 |        16384 |        16384 |        16384 |        16384 |        16384 |        16384 |        16384 |        16384 |        16384 |        16384 |        16384 |        16384 |        16384 |        16384 |        16384 |        16384 |        16384 |        16384 |        16384 |        16384 |        16384 |        16384 |        16384 |        16384 |        16384 |        16384 |        16384 |        16384 |        16384 |        16384 |        16384 |        16384 |        16384 |
ld_prog_entry                           0x00400140 |   0x00400140 |   0x00400140 |   0x00400140 |   0x00400140 |   0x00400140 |   0x00400140 |   0x00400140 |   0x00400140 |   0x00400140 |   0x00400140 |   0x00400140 |   0x00400140 |   0x00400140 |   0x00400140 |   0x00400140 |   0x00400140 |   0x00400140 |   0x00400140 |   0x00400140 |   0x00400140 |   0x00400140 |   0x00400140 |   0x00400140 |   0x00400140 |   0x00400140 |   0x00400140 |   0x00400140 |   0x00400140 |   0x00400140 |   0x00400140 |   0x00400140 |   0x00400140 |   0x00400140 |   0x00400140 |   0x00400140 |   0x00400140 |   0x00400140 |   0x00400140 |   0x00400140 |   0x00400140 |   0x00400140 |   0x00400140 |   0x00400140 |
ld_environ_base                         0x7fff8000 |   0x7fff8000 |   0x7fff8000 |   0x7fff8000 |   0x7fff8000 |   0x7fff8000 |   0x7fff8000 |   0x7fff8000 |   0x7fff8000 |   0x7fff8000 |   0x7fff8000 |   0x7fff8000 |   0x7fff8000 |   0x7fff8000 |   0x7fff8000 |   0x7fff8000 |   0x7fff8000 |   0x7fff8000 |   0x7fff8000 |   0x7fff8000 |   0x7fff8000 |   0x7fff8000 |   0x7fff8000 |   0x7fff8000 |   0x7fff8000 |   0x7fff8000 |   0x7fff8000 |   0x7fff8000 |   0x7fff8000 |   0x7fff8000 |   0x7fff8000 |   0x7fff8000 |   0x7fff8000 |   0x7fff8000 |   0x7fff8000 |   0x7fff8000 |   0x7fff8000 |   0x7fff8000 |   0x7fff8000 |   0x7fff8000 |   0x7fff8000 |   0x7fff8000 |   0x7fff8000 |   0x7fff8000 |
ld_target_big_endian                             0 |            0 |            0 |            0 |            0 |            0 |            0 |            0 |            0 |            0 |            0 |            0 |            0 |            0 |            0 |            0 |            0 |            0 |            0 |            0 |            0 |            0 |            0 |            0 |            0 |            0 |            0 |            0 |            0 |            0 |            0 |            0 |            0 |            0 |            0 |            0 |            0 |            0 |            0 |            0 |            0 |            0 |            0 |            0 |
mem.page_count                                  35 |           35 |           35 |           35 |           43 |           43 |           43 |           43 |           59 |           59 |           59 |           59 |           91 |           91 |           91 |           91 |          155 |          155 |          155 |          155 |          283 |          283 |          283 |          283 |          539 |          539 |          539 |          539 |         1051 |         1051 |         1051 |         1051 |         2081 |         2081 |         2081 |         2081 |         4135 |         4135 |         4135 |         4135 |         8243 |         8243 |         8243 |         8243 |
mem.page_mem                                  140k |         140k |         140k |         140k |         172k |         172k |         172k |         172k |         236k |         236k |         236k |         236k |         364k |         364k |         364k |         364k |         620k |         620k |         620k |         620k |        1132k |        1132k |        1132k |        1132k |        2156k |        2156k |        2156k |        2156k |        4204k |        4204k |        4204k |        4204k |        8324k |        8324k |        8324k |        8324k |       16540k |       16540k |       16540k |       16540k |       32972k |       32972k |       32972k |       32972k |
mem.ptab_misses                                 35 |           35 |           35 |           35 |           43 |           43 |           43 |           43 |           59 |           59 |           59 |           59 |           91 |           91 |           91 |           91 |          155 |          155 |          155 |          155 |          283 |          283 |          283 |          283 |          539 |          539 |          539 |          539 |         1051 |         1051 |         1051 |         1051 |         9152 |         9152 |         9152 |         9152 |        23526 |        23526 |        23526 |        23526 |        64738 |        64738 |        64738 |        64738 |
mem.ptab_accesses                          4410532 |      4410532 |      4410532 |      4410532 |      8919882 |      8919882 |      8919882 |      8919882 |     18579316 |     18579316 |     18579316 |     18579316 |     39065330 |     39065330 |     39065330 |     39065330 |     82555868 |     82555868 |     82555868 |     82555868 |    174200406 |    174200406 |    174200406 |    174200406 |    367604426 |    367604426 |    367604426 |    367604426 |    773050298 |    773050298 |    773050298 |    773050298 |   1624475720 |   1624475720 |   1624475720 |   1624475720 |   3402138422 |   3402138422 |   3402138422 |   3402138422 |   7118908262 |   7118908262 |   7118908262 |   7118908262 |
mem.ptab_miss_rate                          0.0000 |       0.0000 |       0.0000 |       0.0000 |       0.0000 |       0.0000 |       0.0000 |       0.0000 |       0.0000 |       0.0000 |       0.0000 |       0.0000 |       0.0000 |       0.0000 |       0.0000 |       0.0000 |       0.0000 |       0.0000 |       0.0000 |       0.0000 |       0.0000 |       0.0000 |       0.0000 |       0.0000 |       0.0000 |       0.0000 |       0.0000 |       0.0000 |       0.0000 |       0.0000 |       0.0000 |       0.0000 |       0.0000 |       0.0000 |       0.0000 |       0.0000 |       0.0000 |       0.0000 |       0.0000 |       0.0000 |       0.0000 |       0.0000 |       0.0000 |       0.0000 |
-------------------------------------------------------------------------------------------------
sim-bpred                                     4096 |         4096 |         4096 |         4096 |         4096 |         4096 |         4096 |         8192 |         8192 |         8192 |         8192 |         8192 |         8192 |         8192 |        16384 |        16384 |        16384 |        16384 |        16384 |        16384 |        16384 |        32768 |        32768 |        32768 |        32768 |        32768 |        32768 |        32768 |        65536 |        65536 |        65536 |        65536 |        65536 |        65536 |        65536 |       131072 |       131072 |       131072 |       131072 |       131072 |       131072 |       131072 |       262144 |       262144 |       262144 |       262144 |       262144 |       262144 |       262144 |       524288 |       524288 |       524288 |       524288 |       524288 |       524288 |       524288 |      1048576 |      1048576 |      1048576 |      1048576 |      1048576 |      1048576 |      1048576 |      2097152 |      2097152 |      2097152 |      2097152 |      2097152 |      2097152 |      2097152 |      4194304 |      4194304 |      4194304 |      4194304 |      4194304 |      4194304 |      4194304 |
-bpred bimod -bpred:bimod 512
-bpred bimod -bpred:bimod 1024
-bpred bimod -bpred:bimod 2048
-bpred 2lev -bpred:2lev 1 512 10 1
-bpred 2lev -bpred:2lev 1 1024 10 1
-bpred 2lev -bpred:2lev 1 2048 10 1
-bpred 2lev -bpred:2lev 1 4096 10 1
-------------------------------------------------------------------------------------------------
sim_num_insn                                870306 |       870306 |       870306 |       870306 |       870306 |       870306 |       870306 |      1866272 |      1866272 |      1866272 |      1866272 |      1866272 |      1866272 |      1866272 |      4001362 |      4001362 |      4001362 |      4001362 |      4001362 |      4001362 |      4001362 |      8531617 |      8531617 |      8531617 |      8531617 |      8531617 |      8531617 |      8531617 |     18154286 |     18154286 |     18154286 |     18154286 |     18154286 |     18154286 |     18154286 |     38438883 |     38438883 |     38438883 |     38438883 |     38438883 |     38438883 |     38438883 |     81265578 |     81265578 |     81265578 |     81265578 |     81265578 |     81265578 |     81265578 |    171072613 |    171072613 |    171072613 |    171072613 |    171072613 |    171072613 |    171072613 |    359730618 |    359730618 |    359730618 |    359730618 |    359730618 |    359730618 |    359730618 |    753726561 |    753726561 |    753726561 |    753726561 |    753726561 |    753726561 |    753726561 |   1577744791 |   1577744791 |   1577744791 |   1577744791 |   1577744791 |   1577744791 |   1577744791 |
sim_num_refs                                217986 |       217986 |       217986 |       217986 |       217986 |       217986 |       217986 |       464249 |       464249 |       464249 |       464249 |       464249 |       464249 |       464249 |       990970 |       990970 |       990970 |       990970 |       990970 |       990970 |       990970 |      2107883 |      2107883 |      2107883 |      2107883 |      2107883 |      2107883 |      2107883 |      4476742 |      4476742 |      4476742 |      4476742 |      4476742 |      4476742 |      4476742 |      9467673 |      9467673 |      9467673 |      9467673 |      9467673 |      9467673 |      9467673 |     19992005 |     19992005 |     19992005 |     19992005 |     19992005 |     19992005 |     19992005 |     42052295 |     42052295 |     42052295 |     42052295 |     42052295 |     42052295 |     42052295 |     88351844 |     88351844 |     88351844 |     88351844 |     88351844 |     88351844 |     88351844 |    184997005 |    184997005 |    184997005 |    184997005 |    184997005 |    184997005 |    184997005 |    386956857 |    386956857 |    386956857 |    386956857 |    386956857 |    386956857 |    386956857 |
sim_elapsed_time                                 1 |            1 |            1 |            1 |            1 |            1 |            1 |            1 |            1 |            1 |            1 |            1 |            1 |            1 |            1 |            1 |            1 |            1 |            1 |            1 |            1 |            1 |            1 |            2 |            1 |            1 |            1 |            1 |            2 |            3 |            2 |            3 |            2 |            2 |            3 |            5 |            5 |            5 |            5 |            5 |            5 |            5 |           11 |           10 |           11 |           10 |           11 |           11 |           10 |           22 |           23 |           22 |           22 |           22 |           23 |           22 |           46 |           47 |           47 |           47 |           47 |           47 |           47 |           98 |           98 |           98 |          100 |           99 |           99 |           99 |          204 |          204 |          203 |          206 |          206 |          206 |          206 |
sim_inst_rate                          870306.0000 |  870306.0000 |  870306.0000 |  870306.0000 |  870306.0000 |  870306.0000 |  870306.0000 | 1866272.0000 | 1866272.0000 | 1866272.0000 | 1866272.0000 | 1866272.0000 | 1866272.0000 | 1866272.0000 | 4001362.0000 | 4001362.0000 | 4001362.0000 | 4001362.0000 | 4001362.0000 | 4001362.0000 | 4001362.0000 | 8531617.0000 | 8531617.0000 | 4265808.5000 | 8531617.0000 | 8531617.0000 | 8531617.0000 | 8531617.0000 | 9077143.0000 | 6051428.6667 | 9077143.0000 | 6051428.6667 | 9077143.0000 | 9077143.0000 | 6051428.6667 | 7687776.6000 | 7687776.6000 | 7687776.6000 | 7687776.6000 | 7687776.6000 | 7687776.6000 | 7687776.6000 | 7387779.8182 | 8126557.8000 | 7387779.8182 | 8126557.8000 | 7387779.8182 | 7387779.8182 | 8126557.8000 | 7776027.8636 | 7437939.6957 | 7776027.8636 | 7776027.8636 | 7776027.8636 | 7437939.6957 | 7776027.8636 | 7820230.8261 | 7653842.9362 | 7653842.9362 | 7653842.9362 | 7653842.9362 | 7653842.9362 | 7653842.9362 | 7691087.3571 | 7691087.3571 | 7691087.3571 | 7537265.6100 | 7613399.6061 | 7613399.6061 | 7613399.6061 | 7734043.0931 | 7734043.0931 | 7772141.8276 | 7658955.2961 | 7658955.2961 | 7658955.2961 | 7658955.2961 |
sim_num_branches                            154914 |       154914 |       154914 |       154914 |       154914 |       154914 |       154914 |       333163 |       333163 |       333163 |       333163 |       333163 |       333163 |       333163 |       715249 |       715249 |       715249 |       715249 |       715249 |       715249 |       715249 |      1527245 |      1527245 |      1527245 |      1527245 |      1527245 |      1527245 |      1527245 |      3251735 |      3251735 |      3251735 |      3251735 |      3251735 |      3251735 |      3251735 |      6891744 |      6891744 |      6891744 |      6891744 |      6891744 |      6891744 |      6891744 |     14577266 |     14577266 |     14577266 |     14577266 |     14577266 |     14577266 |     14577266 |     30708543 |     30708543 |     30708543 |     30708543 |     30708543 |     30708543 |     30708543 |     64598455 |     64598455 |     64598455 |     64598455 |     64598455 |     64598455 |     64598455 |    135423608 |    135423608 |    135423608 |    135423608 |    135423608 |    135423608 |    135423608 |    283571558 |    283571558 |    283571558 |    283571558 |    283571558 |    283571558 |    283571558 |
sim_IPB                                     5.6180 |       5.6180 |       5.6180 |       5.6180 |       5.6180 |       5.6180 |       5.6180 |       5.6017 |       5.6017 |       5.6017 |       5.6017 |       5.6017 |       5.6017 |       5.6017 |       5.5944 |       5.5944 |       5.5944 |       5.5944 |       5.5944 |       5.5944 |       5.5944 |       5.5863 |       5.5863 |       5.5863 |       5.5863 |       5.5863 |       5.5863 |       5.5863 |       5.5830 |       5.5830 |       5.5830 |       5.5830 |       5.5830 |       5.5830 |       5.5830 |       5.5775 |       5.5775 |       5.5775 |       5.5775 |       5.5775 |       5.5775 |       5.5775 |       5.5748 |       5.5748 |       5.5748 |       5.5748 |       5.5748 |       5.5748 |       5.5748 |       5.5708 |       5.5708 |       5.5708 |       5.5708 |       5.5708 |       5.5708 |       5.5708 |       5.5687 |       5.5687 |       5.5687 |       5.5687 |       5.5687 |       5.5687 |       5.5687 |       5.5657 |       5.5657 |       5.5657 |       5.5657 |       5.5657 |       5.5657 |       5.5657 |       5.5638 |       5.5638 |       5.5638 |       5.5638 |       5.5638 |       5.5638 |       5.5638 |
bpred_bimod.lookups                         154914 |       154914 |       154914 |xxxxxxxxxxxxx |xxxxxxxxxxxxx |xxxxxxxxxxxxx |xxxxxxxxxxxxx |       333163 |       333163 |       333163 |xxxxxxxxxxxxx |xxxxxxxxxxxxx |xxxxxxxxxxxxx |xxxxxxxxxxxxx |       715249 |       715249 |       715249 |xxxxxxxxxxxxx |xxxxxxxxxxxxx |xxxxxxxxxxxxx |xxxxxxxxxxxxx |      1527245 |      1527245 |      1527245 |xxxxxxxxxxxxx |xxxxxxxxxxxxx |xxxxxxxxxxxxx |xxxxxxxxxxxxx |      3251735 |      3251735 |      3251735 |xxxxxxxxxxxxx |xxxxxxxxxxxxx |xxxxxxxxxxxxx |xxxxxxxxxxxxx |      6891744 |      6891744 |      6891744 |xxxxxxxxxxxxx |xxxxxxxxxxxxx |xxxxxxxxxxxxx |xxxxxxxxxxxxx |     14577266 |     14577266 |     14577266 |xxxxxxxxxxxxx |xxxxxxxxxxxxx |xxxxxxxxxxxxx |xxxxxxxxxxxxx |     30708543 |     30708543 |     30708543 |xxxxxxxxxxxxx |xxxxxxxxxxxxx |xxxxxxxxxxxxx |xxxxxxxxxxxxx |     64598455 |     64598455 |     64598455 |xxxxxxxxxxxxx |xxxxxxxxxxxxx |xxxxxxxxxxxxx |xxxxxxxxxxxxx |    135423608 |    135423608 |    135423608 |xxxxxxxxxxxxx |xxxxxxxxxxxxx |xxxxxxxxxxxxx |xxxxxxxxxxxxx |    283571558 |    283571558 |    283571558 |
bpred_bimod.updates                         154914 |       154914 |       154914 |xxxxxxxxxxxxx |xxxxxxxxxxxxx |xxxxxxxxxxxxx |xxxxxxxxxxxxx |       333163 |       333163 |       333163 |xxxxxxxxxxxxx |xxxxxxxxxxxxx |xxxxxxxxxxxxx |xxxxxxxxxxxxx |       715249 |       715249 |       715249 |xxxxxxxxxxxxx |xxxxxxxxxxxxx |xxxxxxxxxxxxx |xxxxxxxxxxxxx |      1527245 |      1527245 |      1527245 |xxxxxxxxxxxxx |xxxxxxxxxxxxx |xxxxxxxxxxxxx |xxxxxxxxxxxxx |      3251735 |      3251735 |      3251735 |xxxxxxxxxxxxx |xxxxxxxxxxxxx |xxxxxxxxxxxxx |xxxxxxxxxxxxx |      6891744 |      6891744 |      6891744 |xxxxxxxxxxxxx |xxxxxxxxxxxxx |xxxxxxxxxxxxx |xxxxxxxxxxxxx |     14577266 |     14577266 |     14577266 |xxxxxxxxxxxxx |xxxxxxxxxxxxx |xxxxxxxxxxxxx |xxxxxxxxxxxxx |     30708543 |     30708543 |     30708543 |xxxxxxxxxxxxx |xxxxxxxxxxxxx |xxxxxxxxxxxxx |xxxxxxxxxxxxx |     64598455 |     64598455 |     64598455 |xxxxxxxxxxxxx |xxxxxxxxxxxxx |xxxxxxxxxxxxx |xxxxxxxxxxxxx |    135423608 |    135423608 |    135423608 |xxxxxxxxxxxxx |xxxxxxxxxxxxx |xxxxxxxxxxxxx |xxxxxxxxxxxxx |    283571558 |    283571558 |    283571558 |
bpred_bimod.addr_hits                       124214 |       124223 |       124223 |xxxxxxxxxxxxx |xxxxxxxxxxxxx |xxxxxxxxxxxxx |xxxxxxxxxxxxx |       267276 |       267282 |       267282 |xxxxxxxxxxxxx |xxxxxxxxxxxxx |xxxxxxxxxxxxx |xxxxxxxxxxxxx |       573766 |       573772 |       573773 |xxxxxxxxxxxxx |xxxxxxxxxxxxx |xxxxxxxxxxxxx |xxxxxxxxxxxxx |      1223311 |      1223317 |      1223320 |xxxxxxxxxxxxx |xxxxxxxxxxxxx |xxxxxxxxxxxxx |xxxxxxxxxxxxx |      2603678 |      2603684 |      2603687 |xxxxxxxxxxxxx |xxxxxxxxxxxxx |xxxxxxxxxxxxx |xxxxxxxxxxxxx |      5515033 |      5515040 |      5515042 |xxxxxxxxxxxxx |xxxxxxxxxxxxx |xxxxxxxxxxxxx |xxxxxxxxxxxxx |     11670911 |     11670918 |     11670920 |xxxxxxxxxxxxx |xxxxxxxxxxxxx |xxxxxxxxxxxxx |xxxxxxxxxxxxx |     24567236 |     24567243 |     24567245 |xxxxxxxxxxxxx |xxxxxxxxxxxxx |xxxxxxxxxxxxx |xxxxxxxxxxxxx |     51711253 |     51711259 |     51711260 |xxxxxxxxxxxxx |xxxxxxxxxxxxx |xxxxxxxxxxxxx |xxxxxxxxxxxxx |    108309500 |    108309506 |    108309507 |xxxxxxxxxxxxx |xxxxxxxxxxxxx |xxxxxxxxxxxxx |xxxxxxxxxxxxx |    226942052 |    226942058 |    226942059 |
bpred_bimod.dir_hits                        124335 |       124344 |       124345 |xxxxxxxxxxxxx |xxxxxxxxxxxxx |xxxxxxxxxxxxx |xxxxxxxxxxxxx |       267401 |       267407 |       267407 |xxxxxxxxxxxxx |xxxxxxxxxxxxx |xxxxxxxxxxxxx |xxxxxxxxxxxxx |       573892 |       573898 |       573899 |xxxxxxxxxxxxx |xxxxxxxxxxxxx |xxxxxxxxxxxxx |xxxxxxxxxxxxx |      1223437 |      1223443 |      1223446 |xxxxxxxxxxxxx |xxxxxxxxxxxxx |xxxxxxxxxxxxx |xxxxxxxxxxxxx |      2603803 |      2603809 |      2603812 |xxxxxxxxxxxxx |xxxxxxxxxxxxx |xxxxxxxxxxxxx |xxxxxxxxxxxxx |      5515159 |      5515166 |      5515168 |xxxxxxxxxxxxx |xxxxxxxxxxxxx |xxxxxxxxxxxxx |xxxxxxxxxxxxx |     11671038 |     11671045 |     11671047 |xxxxxxxxxxxxx |xxxxxxxxxxxxx |xxxxxxxxxxxxx |xxxxxxxxxxxxx |     24567363 |     24567370 |     24567372 |xxxxxxxxxxxxx |xxxxxxxxxxxxx |xxxxxxxxxxxxx |xxxxxxxxxxxxx |     51711391 |     51711397 |     51711398 |xxxxxxxxxxxxx |xxxxxxxxxxxxx |xxxxxxxxxxxxx |xxxxxxxxxxxxx |    108309638 |    108309644 |    108309645 |xxxxxxxxxxxxx |xxxxxxxxxxxxx |xxxxxxxxxxxxx |xxxxxxxxxxxxx |    226942190 |    226942196 |    226942197 |
bpred_bimod.misses                           30579 |        30570 |        30569 |xxxxxxxxxxxxx |xxxxxxxxxxxxx |xxxxxxxxxxxxx |xxxxxxxxxxxxx |        65762 |        65756 |        65756 |xxxxxxxxxxxxx |xxxxxxxxxxxxx |xxxxxxxxxxxxx |xxxxxxxxxxxxx |       141357 |       141351 |       141350 |xxxxxxxxxxxxx |xxxxxxxxxxxxx |xxxxxxxxxxxxx |xxxxxxxxxxxxx |       303808 |       303802 |       303799 |xxxxxxxxxxxxx |xxxxxxxxxxxxx |xxxxxxxxxxxxx |xxxxxxxxxxxxx |       647932 |       647926 |       647923 |xxxxxxxxxxxxx |xxxxxxxxxxxxx |xxxxxxxxxxxxx |xxxxxxxxxxxxx |      1376585 |      1376578 |      1376576 |xxxxxxxxxxxxx |xxxxxxxxxxxxx |xxxxxxxxxxxxx |xxxxxxxxxxxxx |      2906228 |      2906221 |      2906219 |xxxxxxxxxxxxx |xxxxxxxxxxxxx |xxxxxxxxxxxxx |xxxxxxxxxxxxx |      6141180 |      6141173 |      6141171 |xxxxxxxxxxxxx |xxxxxxxxxxxxx |xxxxxxxxxxxxx |xxxxxxxxxxxxx |     12887064 |     12887058 |     12887057 |xxxxxxxxxxxxx |xxxxxxxxxxxxx |xxxxxxxxxxxxx |xxxxxxxxxxxxx |     27113970 |     27113964 |     27113963 |xxxxxxxxxxxxx |xxxxxxxxxxxxx |xxxxxxxxxxxxx |xxxxxxxxxxxxx |     56629368 |     56629362 |     56629361 |
bpred_bimod.jr_hits                           4157 |         4157 |         4157 |xxxxxxxxxxxxx |xxxxxxxxxxxxx |xxxxxxxxxxxxx |xxxxxxxxxxxxx |         8261 |         8261 |         8261 |xxxxxxxxxxxxx |xxxxxxxxxxxxx |xxxxxxxxxxxxx |xxxxxxxxxxxxx |        16453 |        16453 |        16453 |xxxxxxxxxxxxx |xxxxxxxxxxxxx |xxxxxxxxxxxxx |xxxxxxxxxxxxx |        32837 |        32837 |        32837 |xxxxxxxxxxxxx |xxxxxxxxxxxxx |xxxxxxxxxxxxx |xxxxxxxxxxxxx |        65605 |        65605 |        65605 |xxxxxxxxxxxxx |xxxxxxxxxxxxx |xxxxxxxxxxxxx |xxxxxxxxxxxxx |       131141 |       131141 |       131141 |xxxxxxxxxxxxx |xxxxxxxxxxxxx |xxxxxxxxxxxxx |xxxxxxxxxxxxx |       262213 |       262213 |       262213 |xxxxxxxxxxxxx |xxxxxxxxxxxxx |xxxxxxxxxxxxx |xxxxxxxxxxxxx |       524357 |       524357 |       524357 |xxxxxxxxxxxxx |xxxxxxxxxxxxx |xxxxxxxxxxxxx |xxxxxxxxxxxxx |      1048648 |      1048648 |      1048648 |xxxxxxxxxxxxx |xxxxxxxxxxxxx |xxxxxxxxxxxxx |xxxxxxxxxxxxx |      2097224 |      2097224 |      2097224 |xxxxxxxxxxxxx |xxxxxxxxxxxxx |xxxxxxxxxxxxx |xxxxxxxxxxxxx |      4194376 |      4194376 |      4194376 |
bpred_bimod.jr_seen                           4157 |         4157 |         4157 |xxxxxxxxxxxxx |xxxxxxxxxxxxx |xxxxxxxxxxxxx |xxxxxxxxxxxxx |         8262 |         8262 |         8262 |xxxxxxxxxxxxx |xxxxxxxxxxxxx |xxxxxxxxxxxxx |xxxxxxxxxxxxx |        16454 |        16454 |        16454 |xxxxxxxxxxxxx |xxxxxxxxxxxxx |xxxxxxxxxxxxx |xxxxxxxxxxxxx |        32838 |        32838 |        32838 |xxxxxxxxxxxxx |xxxxxxxxxxxxx |xxxxxxxxxxxxx |xxxxxxxxxxxxx |        65606 |        65606 |        65606 |xxxxxxxxxxxxx |xxxxxxxxxxxxx |xxxxxxxxxxxxx |xxxxxxxxxxxxx |       131142 |       131142 |       131142 |xxxxxxxxxxxxx |xxxxxxxxxxxxx |xxxxxxxxxxxxx |xxxxxxxxxxxxx |       262214 |       262214 |       262214 |xxxxxxxxxxxxx |xxxxxxxxxxxxx |xxxxxxxxxxxxx |xxxxxxxxxxxxx |       524358 |       524358 |       524358 |xxxxxxxxxxxxx |xxxxxxxxxxxxx |xxxxxxxxxxxxx |xxxxxxxxxxxxx |      1048649 |      1048649 |      1048649 |xxxxxxxxxxxxx |xxxxxxxxxxxxx |xxxxxxxxxxxxx |xxxxxxxxxxxxx |      2097225 |      2097225 |      2097225 |xxxxxxxxxxxxx |xxxxxxxxxxxxx |xxxxxxxxxxxxx |xxxxxxxxxxxxx |      4194377 |      4194377 |      4194377 |
bpred_bimod.jr_non_ras_hits.PP                   0 |            0 |            0 |xxxxxxxxxxxxx |xxxxxxxxxxxxx |xxxxxxxxxxxxx |xxxxxxxxxxxxx |            0 |            0 |            0 |xxxxxxxxxxxxx |xxxxxxxxxxxxx |xxxxxxxxxxxxx |xxxxxxxxxxxxx |            0 |            0 |            0 |xxxxxxxxxxxxx |xxxxxxxxxxxxx |xxxxxxxxxxxxx |xxxxxxxxxxxxx |            0 |            0 |            0 |xxxxxxxxxxxxx |xxxxxxxxxxxxx |xxxxxxxxxxxxx |xxxxxxxxxxxxx |            0 |            0 |            0 |xxxxxxxxxxxxx |xxxxxxxxxxxxx |xxxxxxxxxxxxx |xxxxxxxxxxxxx |            0 |            0 |            0 |xxxxxxxxxxxxx |xxxxxxxxxxxxx |xxxxxxxxxxxxx |xxxxxxxxxxxxx |            0 |            0 |            0 |xxxxxxxxxxxxx |xxxxxxxxxxxxx |xxxxxxxxxxxxx |xxxxxxxxxxxxx |            0 |            0 |            0 |xxxxxxxxxxxxx |xxxxxxxxxxxxx |xxxxxxxxxxxxx |xxxxxxxxxxxxx |            0 |            0 |            0 |xxxxxxxxxxxxx |xxxxxxxxxxxxx |xxxxxxxxxxxxx |xxxxxxxxxxxxx |            0 |            0 |            0 |xxxxxxxxxxxxx |xxxxxxxxxxxxx |xxxxxxxxxxxxx |xxxxxxxxxxxxx |            0 |            0 |            0 |
bpred_bimod.jr_non_ras_seen.PP                   0 |            0 |            0 |xxxxxxxxxxxxx |xxxxxxxxxxxxx |xxxxxxxxxxxxx |xxxxxxxxxxxxx |            0 |            0 |            0 |xxxxxxxxxxxxx |xxxxxxxxxxxxx |xxxxxxxxxxxxx |xxxxxxxxxxxxx |            0 |            0 |            0 |xxxxxxxxxxxxx |xxxxxxxxxxxxx |xxxxxxxxxxxxx |xxxxxxxxxxxxx |            0 |            0 |            0 |xxxxxxxxxxxxx |xxxxxxxxxxxxx |xxxxxxxxxxxxx |xxxxxxxxxxxxx |            0 |            0 |            0 |xxxxxxxxxxxxx |xxxxxxxxxxxxx |xxxxxxxxxxxxx |xxxxxxxxxxxxx |            0 |            0 |            0 |xxxxxxxxxxxxx |xxxxxxxxxxxxx |xxxxxxxxxxxxx |xxxxxxxxxxxxx |            0 |            0 |            0 |xxxxxxxxxxxxx |xxxxxxxxxxxxx |xxxxxxxxxxxxx |xxxxxxxxxxxxx |            0 |            0 |            0 |xxxxxxxxxxxxx |xxxxxxxxxxxxx |xxxxxxxxxxxxx |xxxxxxxxxxxxx |            1 |            1 |            1 |xxxxxxxxxxxxx |xxxxxxxxxxxxx |xxxxxxxxxxxxx |xxxxxxxxxxxxx |            1 |            1 |            1 |xxxxxxxxxxxxx |xxxxxxxxxxxxx |xxxxxxxxxxxxx |xxxxxxxxxxxxx |            1 |            1 |            1 |
bpred_bimod.bpred_addr_rate                 0.8018 |       0.8019 |       0.8019 |xxxxxxxxxxxxx |xxxxxxxxxxxxx |xxxxxxxxxxxxx |xxxxxxxxxxxxx |       0.8022 |       0.8023 |       0.8023 |xxxxxxxxxxxxx |xxxxxxxxxxxxx |xxxxxxxxxxxxx |xxxxxxxxxxxxx |       0.8022 |       0.8022 |       0.8022 |xxxxxxxxxxxxx |xxxxxxxxxxxxx |xxxxxxxxxxxxx |xxxxxxxxxxxxx |       0.8010 |       0.8010 |       0.8010 |xxxxxxxxxxxxx |xxxxxxxxxxxxx |xxxxxxxxxxxxx |xxxxxxxxxxxxx |       0.8007 |       0.8007 |       0.8007 |xxxxxxxxxxxxx |xxxxxxxxxxxxx |xxxxxxxxxxxxx |xxxxxxxxxxxxx |       0.8002 |       0.8002 |       0.8002 |xxxxxxxxxxxxx |xxxxxxxxxxxxx |xxxxxxxxxxxxx |xxxxxxxxxxxxx |       0.8006 |       0.8006 |       0.8006 |xxxxxxxxxxxxx |xxxxxxxxxxxxx |xxxxxxxxxxxxx |xxxxxxxxxxxxx |       0.8000 |       0.8000 |       0.8000 |xxxxxxxxxxxxx |xxxxxxxxxxxxx |xxxxxxxxxxxxx |xxxxxxxxxxxxx |       0.8005 |       0.8005 |       0.8005 |xxxxxxxxxxxxx |xxxxxxxxxxxxx |xxxxxxxxxxxxx |xxxxxxxxxxxxx |       0.7998 |       0.7998 |       0.7998 |xxxxxxxxxxxxx |xxxxxxxxxxxxx |xxxxxxxxxxxxx |xxxxxxxxxxxxx |       0.8003 |       0.8003 |       0.8003 |
bpred_bimod.bpred_dir_rate                  0.8026 |       0.8027 |       0.8027 |xxxxxxxxxxxxx |xxxxxxxxxxxxx |xxxxxxxxxxxxx |xxxxxxxxxxxxx |       0.8026 |       0.8026 |       0.8026 |xxxxxxxxxxxxx |xxxxxxxxxxxxx |xxxxxxxxxxxxx |xxxxxxxxxxxxx |       0.8024 |       0.8024 |       0.8024 |xxxxxxxxxxxxx |xxxxxxxxxxxxx |xxxxxxxxxxxxx |xxxxxxxxxxxxx |       0.8011 |       0.8011 |       0.8011 |xxxxxxxxxxxxx |xxxxxxxxxxxxx |xxxxxxxxxxxxx |xxxxxxxxxxxxx |       0.8007 |       0.8007 |       0.8007 |xxxxxxxxxxxxx |xxxxxxxxxxxxx |xxxxxxxxxxxxx |xxxxxxxxxxxxx |       0.8003 |       0.8003 |       0.8003 |xxxxxxxxxxxxx |xxxxxxxxxxxxx |xxxxxxxxxxxxx |xxxxxxxxxxxxx |       0.8006 |       0.8006 |       0.8006 |xxxxxxxxxxxxx |xxxxxxxxxxxxx |xxxxxxxxxxxxx |xxxxxxxxxxxxx |       0.8000 |       0.8000 |       0.8000 |xxxxxxxxxxxxx |xxxxxxxxxxxxx |xxxxxxxxxxxxx |xxxxxxxxxxxxx |       0.8005 |       0.8005 |       0.8005 |xxxxxxxxxxxxx |xxxxxxxxxxxxx |xxxxxxxxxxxxx |xxxxxxxxxxxxx |       0.7998 |       0.7998 |       0.7998 |xxxxxxxxxxxxx |xxxxxxxxxxxxx |xxxxxxxxxxxxx |xxxxxxxxxxxxx |       0.8003 |       0.8003 |       0.8003 |
bpred_bimod.bpred_jr_rate                   1.0000 |       1.0000 |       1.0000 |xxxxxxxxxxxxx |xxxxxxxxxxxxx |xxxxxxxxxxxxx |xxxxxxxxxxxxx |       0.9999 |       0.9999 |       0.9999 |xxxxxxxxxxxxx |xxxxxxxxxxxxx |xxxxxxxxxxxxx |xxxxxxxxxxxxx |       0.9999 |       0.9999 |       0.9999 |xxxxxxxxxxxxx |xxxxxxxxxxxxx |xxxxxxxxxxxxx |xxxxxxxxxxxxx |       1.0000 |       1.0000 |       1.0000 |xxxxxxxxxxxxx |xxxxxxxxxxxxx |xxxxxxxxxxxxx |xxxxxxxxxxxxx |       1.0000 |       1.0000 |       1.0000 |xxxxxxxxxxxxx |xxxxxxxxxxxxx |xxxxxxxxxxxxx |xxxxxxxxxxxxx |       1.0000 |       1.0000 |       1.0000 |xxxxxxxxxxxxx |xxxxxxxxxxxxx |xxxxxxxxxxxxx |xxxxxxxxxxxxx |       1.0000 |       1.0000 |       1.0000 |xxxxxxxxxxxxx |xxxxxxxxxxxxx |xxxxxxxxxxxxx |xxxxxxxxxxxxx |       1.0000 |       1.0000 |       1.0000 |xxxxxxxxxxxxx |xxxxxxxxxxxxx |xxxxxxxxxxxxx |xxxxxxxxxxxxx |       1.0000 |       1.0000 |       1.0000 |xxxxxxxxxxxxx |xxxxxxxxxxxxx |xxxxxxxxxxxxx |xxxxxxxxxxxxx |       1.0000 |       1.0000 |       1.0000 |xxxxxxxxxxxxx |xxxxxxxxxxxxx |xxxxxxxxxxxxx |xxxxxxxxxxxxx |       1.0000 |       1.0000 |       1.0000 |
bpred_bimod.bpred_jr_non_ras_rate.PP       <error: |      <error: |      <error: |xxxxxxxxxxxxx |xxxxxxxxxxxxx |xxxxxxxxxxxxx |xxxxxxxxxxxxx |      <error: |      <error: |      <error: |xxxxxxxxxxxxx |xxxxxxxxxxxxx |xxxxxxxxxxxxx |xxxxxxxxxxxxx |      <error: |      <error: |      <error: |xxxxxxxxxxxxx |xxxxxxxxxxxxx |xxxxxxxxxxxxx |xxxxxxxxxxxxx |      <error: |      <error: |      <error: |xxxxxxxxxxxxx |xxxxxxxxxxxxx |xxxxxxxxxxxxx |xxxxxxxxxxxxx |      <error: |      <error: |      <error: |xxxxxxxxxxxxx |xxxxxxxxxxxxx |xxxxxxxxxxxxx |xxxxxxxxxxxxx |      <error: |      <error: |      <error: |xxxxxxxxxxxxx |xxxxxxxxxxxxx |xxxxxxxxxxxxx |xxxxxxxxxxxxx |      <error: |      <error: |      <error: |xxxxxxxxxxxxx |xxxxxxxxxxxxx |xxxxxxxxxxxxx |xxxxxxxxxxxxx |      <error: |      <error: |      <error: |xxxxxxxxxxxxx |xxxxxxxxxxxxx |xxxxxxxxxxxxx |xxxxxxxxxxxxx |       0.0000 |       0.0000 |       0.0000 |xxxxxxxxxxxxx |xxxxxxxxxxxxx |xxxxxxxxxxxxx |xxxxxxxxxxxxx |       0.0000 |       0.0000 |       0.0000 |xxxxxxxxxxxxx |xxxxxxxxxxxxx |xxxxxxxxxxxxx |xxxxxxxxxxxxx |       0.0000 |       0.0000 |       0.0000 |
bpred_bimod.retstack_pushes                   4159 |         4159 |         4159 |xxxxxxxxxxxxx |xxxxxxxxxxxxx |xxxxxxxxxxxxx |xxxxxxxxxxxxx |         8264 |         8264 |         8264 |xxxxxxxxxxxxx |xxxxxxxxxxxxx |xxxxxxxxxxxxx |xxxxxxxxxxxxx |        16456 |        16456 |        16456 |xxxxxxxxxxxxx |xxxxxxxxxxxxx |xxxxxxxxxxxxx |xxxxxxxxxxxxx |        32840 |        32840 |        32840 |xxxxxxxxxxxxx |xxxxxxxxxxxxx |xxxxxxxxxxxxx |xxxxxxxxxxxxx |        65608 |        65608 |        65608 |xxxxxxxxxxxxx |xxxxxxxxxxxxx |xxxxxxxxxxxxx |xxxxxxxxxxxxx |       131144 |       131144 |       131144 |xxxxxxxxxxxxx |xxxxxxxxxxxxx |xxxxxxxxxxxxx |xxxxxxxxxxxxx |       262216 |       262216 |       262216 |xxxxxxxxxxxxx |xxxxxxxxxxxxx |xxxxxxxxxxxxx |xxxxxxxxxxxxx |       524360 |       524360 |       524360 |xxxxxxxxxxxxx |xxxxxxxxxxxxx |xxxxxxxxxxxxx |xxxxxxxxxxxxx |      1048650 |      1048650 |      1048650 |xxxxxxxxxxxxx |xxxxxxxxxxxxx |xxxxxxxxxxxxx |xxxxxxxxxxxxx |      2097226 |      2097226 |      2097226 |xxxxxxxxxxxxx |xxxxxxxxxxxxx |xxxxxxxxxxxxx |xxxxxxxxxxxxx |      4194378 |      4194378 |      4194378 |
bpred_bimod.retstack_pops                     4157 |         4157 |         4157 |xxxxxxxxxxxxx |xxxxxxxxxxxxx |xxxxxxxxxxxxx |xxxxxxxxxxxxx |         8262 |         8262 |         8262 |xxxxxxxxxxxxx |xxxxxxxxxxxxx |xxxxxxxxxxxxx |xxxxxxxxxxxxx |        16454 |        16454 |        16454 |xxxxxxxxxxxxx |xxxxxxxxxxxxx |xxxxxxxxxxxxx |xxxxxxxxxxxxx |        32838 |        32838 |        32838 |xxxxxxxxxxxxx |xxxxxxxxxxxxx |xxxxxxxxxxxxx |xxxxxxxxxxxxx |        65606 |        65606 |        65606 |xxxxxxxxxxxxx |xxxxxxxxxxxxx |xxxxxxxxxxxxx |xxxxxxxxxxxxx |       131142 |       131142 |       131142 |xxxxxxxxxxxxx |xxxxxxxxxxxxx |xxxxxxxxxxxxx |xxxxxxxxxxxxx |       262214 |       262214 |       262214 |xxxxxxxxxxxxx |xxxxxxxxxxxxx |xxxxxxxxxxxxx |xxxxxxxxxxxxx |       524358 |       524358 |       524358 |xxxxxxxxxxxxx |xxxxxxxxxxxxx |xxxxxxxxxxxxx |xxxxxxxxxxxxx |      1048648 |      1048648 |      1048648 |xxxxxxxxxxxxx |xxxxxxxxxxxxx |xxxxxxxxxxxxx |xxxxxxxxxxxxx |      2097224 |      2097224 |      2097224 |xxxxxxxxxxxxx |xxxxxxxxxxxxx |xxxxxxxxxxxxx |xxxxxxxxxxxxx |      4194376 |      4194376 |      4194376 |
bpred_bimod.used_ras.PP                       4157 |         4157 |         4157 |xxxxxxxxxxxxx |xxxxxxxxxxxxx |xxxxxxxxxxxxx |xxxxxxxxxxxxx |         8262 |         8262 |         8262 |xxxxxxxxxxxxx |xxxxxxxxxxxxx |xxxxxxxxxxxxx |xxxxxxxxxxxxx |        16454 |        16454 |        16454 |xxxxxxxxxxxxx |xxxxxxxxxxxxx |xxxxxxxxxxxxx |xxxxxxxxxxxxx |        32838 |        32838 |        32838 |xxxxxxxxxxxxx |xxxxxxxxxxxxx |xxxxxxxxxxxxx |xxxxxxxxxxxxx |        65606 |        65606 |        65606 |xxxxxxxxxxxxx |xxxxxxxxxxxxx |xxxxxxxxxxxxx |xxxxxxxxxxxxx |       131142 |       131142 |       131142 |xxxxxxxxxxxxx |xxxxxxxxxxxxx |xxxxxxxxxxxxx |xxxxxxxxxxxxx |       262214 |       262214 |       262214 |xxxxxxxxxxxxx |xxxxxxxxxxxxx |xxxxxxxxxxxxx |xxxxxxxxxxxxx |       524358 |       524358 |       524358 |xxxxxxxxxxxxx |xxxxxxxxxxxxx |xxxxxxxxxxxxx |xxxxxxxxxxxxx |      1048648 |      1048648 |      1048648 |xxxxxxxxxxxxx |xxxxxxxxxxxxx |xxxxxxxxxxxxx |xxxxxxxxxxxxx |      2097224 |      2097224 |      2097224 |xxxxxxxxxxxxx |xxxxxxxxxxxxx |xxxxxxxxxxxxx |xxxxxxxxxxxxx |      4194376 |      4194376 |      4194376 |
bpred_bimod.ras_hits.PP                       4157 |         4157 |         4157 |xxxxxxxxxxxxx |xxxxxxxxxxxxx |xxxxxxxxxxxxx |xxxxxxxxxxxxx |         8261 |         8261 |         8261 |xxxxxxxxxxxxx |xxxxxxxxxxxxx |xxxxxxxxxxxxx |xxxxxxxxxxxxx |        16453 |        16453 |        16453 |xxxxxxxxxxxxx |xxxxxxxxxxxxx |xxxxxxxxxxxxx |xxxxxxxxxxxxx |        32837 |        32837 |        32837 |xxxxxxxxxxxxx |xxxxxxxxxxxxx |xxxxxxxxxxxxx |xxxxxxxxxxxxx |        65605 |        65605 |        65605 |xxxxxxxxxxxxx |xxxxxxxxxxxxx |xxxxxxxxxxxxx |xxxxxxxxxxxxx |       131141 |       131141 |       131141 |xxxxxxxxxxxxx |xxxxxxxxxxxxx |xxxxxxxxxxxxx |xxxxxxxxxxxxx |       262213 |       262213 |       262213 |xxxxxxxxxxxxx |xxxxxxxxxxxxx |xxxxxxxxxxxxx |xxxxxxxxxxxxx |       524357 |       524357 |       524357 |xxxxxxxxxxxxx |xxxxxxxxxxxxx |xxxxxxxxxxxxx |xxxxxxxxxxxxx |      1048648 |      1048648 |      1048648 |xxxxxxxxxxxxx |xxxxxxxxxxxxx |xxxxxxxxxxxxx |xxxxxxxxxxxxx |      2097224 |      2097224 |      2097224 |xxxxxxxxxxxxx |xxxxxxxxxxxxx |xxxxxxxxxxxxx |xxxxxxxxxxxxx |      4194376 |      4194376 |      4194376 |
bpred_bimod.ras_rate.PP                     1.0000 |       1.0000 |       1.0000 |xxxxxxxxxxxxx |xxxxxxxxxxxxx |xxxxxxxxxxxxx |xxxxxxxxxxxxx |       0.9999 |       0.9999 |       0.9999 |xxxxxxxxxxxxx |xxxxxxxxxxxxx |xxxxxxxxxxxxx |xxxxxxxxxxxxx |       0.9999 |       0.9999 |       0.9999 |xxxxxxxxxxxxx |xxxxxxxxxxxxx |xxxxxxxxxxxxx |xxxxxxxxxxxxx |       1.0000 |       1.0000 |       1.0000 |xxxxxxxxxxxxx |xxxxxxxxxxxxx |xxxxxxxxxxxxx |xxxxxxxxxxxxx |       1.0000 |       1.0000 |       1.0000 |xxxxxxxxxxxxx |xxxxxxxxxxxxx |xxxxxxxxxxxxx |xxxxxxxxxxxxx |       1.0000 |       1.0000 |       1.0000 |xxxxxxxxxxxxx |xxxxxxxxxxxxx |xxxxxxxxxxxxx |xxxxxxxxxxxxx |       1.0000 |       1.0000 |       1.0000 |xxxxxxxxxxxxx |xxxxxxxxxxxxx |xxxxxxxxxxxxx |xxxxxxxxxxxxx |       1.0000 |       1.0000 |       1.0000 |xxxxxxxxxxxxx |xxxxxxxxxxxxx |xxxxxxxxxxxxx |xxxxxxxxxxxxx |       1.0000 |       1.0000 |       1.0000 |xxxxxxxxxxxxx |xxxxxxxxxxxxx |xxxxxxxxxxxxx |xxxxxxxxxxxxx |       1.0000 |       1.0000 |       1.0000 |xxxxxxxxxxxxx |xxxxxxxxxxxxx |xxxxxxxxxxxxx |xxxxxxxxxxxxx |       1.0000 |       1.0000 |       1.0000 |
bpred_2lev.lookups                   xxxxxxxxxxxxx |xxxxxxxxxxxxx |xxxxxxxxxxxxx |       154914 |       154914 |       154914 |       154914 |xxxxxxxxxxxxx |xxxxxxxxxxxxx |xxxxxxxxxxxxx |       333163 |       333163 |       333163 |       333163 |xxxxxxxxxxxxx |xxxxxxxxxxxxx |xxxxxxxxxxxxx |       715249 |       715249 |       715249 |       715249 |xxxxxxxxxxxxx |xxxxxxxxxxxxx |xxxxxxxxxxxxx |      1527245 |      1527245 |      1527245 |      1527245 |xxxxxxxxxxxxx |xxxxxxxxxxxxx |xxxxxxxxxxxxx |      3251735 |      3251735 |      3251735 |      3251735 |xxxxxxxxxxxxx |xxxxxxxxxxxxx |xxxxxxxxxxxxx |      6891744 |      6891744 |      6891744 |      6891744 |xxxxxxxxxxxxx |xxxxxxxxxxxxx |xxxxxxxxxxxxx |     14577266 |     14577266 |     14577266 |     14577266 |xxxxxxxxxxxxx |xxxxxxxxxxxxx |xxxxxxxxxxxxx |     30708543 |     30708543 |     30708543 |     30708543 |xxxxxxxxxxxxx |xxxxxxxxxxxxx |xxxxxxxxxxxxx |     64598455 |     64598455 |     64598455 |     64598455 |xxxxxxxxxxxxx |xxxxxxxxxxxxx |xxxxxxxxxxxxx |    135423608 |    135423608 |    135423608 |    135423608 |xxxxxxxxxxxxx |xxxxxxxxxxxxx |xxxxxxxxxxxxx |    283571558 |    283571558 |    283571558 |    283571558 |
[...]
bpred_2lev.retstack_pushes           xxxxxxxxxxxxx |xxxxxxxxxxxxx |xxxxxxxxxxxxx |         4159 |         4159 |         4159 |         4159 |xxxxxxxxxxxxx |xxxxxxxxxxxxx |xxxxxxxxxxxxx |         8264 |         8264 |         8264 |         8264 |xxxxxxxxxxxxx |xxxxxxxxxxxxx |xxxxxxxxxxxxx |        16456 |        16456 |        16456 |        16456 |xxxxxxxxxxxxx |xxxxxxxxxxxxx |xxxxxxxxxxxxx |        32840 |        32840 |        32840 |        32840 |xxxxxxxxxxxxx |xxxxxxxxxxxxx |xxxxxxxxxxxxx |        65608 |        65608 |        65608 |        65608 |xxxxxxxxxxxxx |xxxxxxxxxxxxx |xxxxxxxxxxxxx |       131144 |       131144 |       131144 |       131144 |xxxxxxxxxxxxx |xxxxxxxxxxxxx |xxxxxxxxxxxxx |       262216 |       262216 |       262216 |       262216 |xxxxxxxxxxxxx |xxxxxxxxxxxxx |xxxxxxxxxxxxx |       524360 |       524360 |       524360 |       524360 |xxxxxxxxxxxxx |xxxxxxxxxxxxx |xxxxxxxxxxxxx |      1048650 |      1048650 |      1048650 |      1048650 |xxxxxxxxxxxxx |xxxxxxxxxxxxx |xxxxxxxxxxxxx |      2097226 |      2097226 |      2097226 |      2097226 |xxxxxxxxxxxxx |xxxxxxxxxxxxx |xxxxxxxxxxxxx |      4194378 |      4194378 |      4194378 |      4194378 |
bpred_2lev.retstack_pops             xxxxxxxxxxxxx |xxxxxxxxxxxxx |xxxxxxxxxxxxx |         4157 |         4157 |         4157 |         4157 |xxxxxxxxxxxxx |xxxxxxxxxxxxx |xxxxxxxxxxxxx |         8262 |         8262 |         8262 |         8262 |xxxxxxxxxxxxx |xxxxxxxxxxxxx |xxxxxxxxxxxxx |        16454 |        16454 |        16454 |        16454 |xxxxxxxxxxxxx |xxxxxxxxxxxxx |xxxxxxxxxxxxx |        32838 |        32838 |        32838 |        32838 |xxxxxxxxxxxxx |xxxxxxxxxxxxx |xxxxxxxxxxxxx |        65606 |        65606 |        65606 |        65606 |xxxxxxxxxxxxx |xxxxxxxxxxxxx |xxxxxxxxxxxxx |       131142 |       131142 |       131142 |       131142 |xxxxxxxxxxxxx |xxxxxxxxxxxxx |xxxxxxxxxxxxx |       262214 |       262214 |       262214 |       262214 |xxxxxxxxxxxxx |xxxxxxxxxxxxx |xxxxxxxxxxxxx |       524358 |       524358 |       524358 |       524358 |xxxxxxxxxxxxx |xxxxxxxxxxxxx |xxxxxxxxxxxxx |      1048648 |      1048648 |      1048648 |      1048648 |xxxxxxxxxxxxx |xxxxxxxxxxxxx |xxxxxxxxxxxxx |      2097224 |      2097224 |      2097224 |      2097224 |xxxxxxxxxxxxx |xxxxxxxxxxxxx |xxxxxxxxxxxxx |      4194376 |      4194376 |      4194376 |      4194376 |
bpred_2lev.used_ras.PP               xxxxxxxxxxxxx |xxxxxxxxxxxxx |xxxxxxxxxxxxx |         4157 |         4157 |         4157 |         4157 |xxxxxxxxxxxxx |xxxxxxxxxxxxx |xxxxxxxxxxxxx |         8262 |         8262 |         8262 |         8262 |xxxxxxxxxxxxx |xxxxxxxxxxxxx |xxxxxxxxxxxxx |        16454 |        16454 |        16454 |        16454 |xxxxxxxxxxxxx |xxxxxxxxxxxxx |xxxxxxxxxxxxx |        32838 |        32838 |        32838 |        32838 |xxxxxxxxxxxxx |xxxxxxxxxxxxx |xxxxxxxxxxxxx |        65606 |        65606 |        65606 |        65606 |xxxxxxxxxxxxx |xxxxxxxxxxxxx |xxxxxxxxxxxxx |       131142 |       131142 |       131142 |       131142 |xxxxxxxxxxxxx |xxxxxxxxxxxxx |xxxxxxxxxxxxx |       262214 |       262214 |       262214 |       262214 |xxxxxxxxxxxxx |xxxxxxxxxxxxx |xxxxxxxxxxxxx |       524358 |       524358 |       524358 |       524358 |xxxxxxxxxxxxx |xxxxxxxxxxxxx |xxxxxxxxxxxxx |      1048648 |      1048648 |      1048648 |      1048648 |xxxxxxxxxxxxx |xxxxxxxxxxxxx |xxxxxxxxxxxxx |      2097224 |      2097224 |      2097224 |      2097224 |xxxxxxxxxxxxx |xxxxxxxxxxxxx |xxxxxxxxxxxxx |      4194376 |      4194376 |      4194376 |      4194376 |
bpred_2lev.ras_hits.PP               xxxxxxxxxxxxx |xxxxxxxxxxxxx |xxxxxxxxxxxxx |         4157 |         4157 |         4157 |         4157 |xxxxxxxxxxxxx |xxxxxxxxxxxxx |xxxxxxxxxxxxx |         8261 |         8261 |         8261 |         8261 |xxxxxxxxxxxxx |xxxxxxxxxxxxx |xxxxxxxxxxxxx |        16453 |        16453 |        16453 |        16453 |xxxxxxxxxxxxx |xxxxxxxxxxxxx |xxxxxxxxxxxxx |        32837 |        32837 |        32837 |        32837 |xxxxxxxxxxxxx |xxxxxxxxxxxxx |xxxxxxxxxxxxx |        65605 |        65605 |        65605 |        65605 |xxxxxxxxxxxxx |xxxxxxxxxxxxx |xxxxxxxxxxxxx |       131141 |       131141 |       131141 |       131141 |xxxxxxxxxxxxx |xxxxxxxxxxxxx |xxxxxxxxxxxxx |       262213 |       262213 |       262213 |       262213 |xxxxxxxxxxxxx |xxxxxxxxxxxxx |xxxxxxxxxxxxx |       524357 |       524357 |       524357 |       524357 |xxxxxxxxxxxxx |xxxxxxxxxxxxx |xxxxxxxxxxxxx |      1048648 |      1048648 |      1048648 |      1048648 |xxxxxxxxxxxxx |xxxxxxxxxxxxx |xxxxxxxxxxxxx |      2097224 |      2097224 |      2097224 |      2097224 |xxxxxxxxxxxxx |xxxxxxxxxxxxx |xxxxxxxxxxxxx |      4194376 |      4194376 |      4194376 |      4194376 |
bpred_2lev.ras_rate.PP               xxxxxxxxxxxxx |xxxxxxxxxxxxx |xxxxxxxxxxxxx |       1.0000 |       1.0000 |       1.0000 |       1.0000 |xxxxxxxxxxxxx |xxxxxxxxxxxxx |xxxxxxxxxxxxx |       0.9999 |       0.9999 |       0.9999 |       0.9999 |xxxxxxxxxxxxx |xxxxxxxxxxxxx |xxxxxxxxxxxxx |       0.9999 |       0.9999 |       0.9999 |       0.9999 |xxxxxxxxxxxxx |xxxxxxxxxxxxx |xxxxxxxxxxxxx |       1.0000 |       1.0000 |       1.0000 |       1.0000 |xxxxxxxxxxxxx |xxxxxxxxxxxxx |xxxxxxxxxxxxx |       1.0000 |       1.0000 |       1.0000 |       1.0000 |xxxxxxxxxxxxx |xxxxxxxxxxxxx |xxxxxxxxxxxxx |       1.0000 |       1.0000 |       1.0000 |       1.0000 |xxxxxxxxxxxxx |xxxxxxxxxxxxx |xxxxxxxxxxxxx |       1.0000 |       1.0000 |       1.0000 |       1.0000 |xxxxxxxxxxxxx |xxxxxxxxxxxxx |xxxxxxxxxxxxx |       1.0000 |       1.0000 |       1.0000 |       1.0000 |xxxxxxxxxxxxx |xxxxxxxxxxxxx |xxxxxxxxxxxxx |       1.0000 |       1.0000 |       1.0000 |       1.0000 |xxxxxxxxxxxxx |xxxxxxxxxxxxx |xxxxxxxxxxxxx |       1.0000 |       1.0000 |       1.0000 |       1.0000 |xxxxxxxxxxxxx |xxxxxxxxxxxxx |xxxxxxxxxxxxx |       1.0000 |       1.0000 |       1.0000 |       1.0000 |

Command list: 
	sslittle-na-sstrix-gcc -Wall -O3 -funroll-loops -finline-functions  -DRANDOM_SIZE=4096 -DOFFSET=6 -DSORT=cache4_heapsort sorts/cache4_heapsort454530916.c simpleMain.c -o cache4_heapsort1896265598
	sim-cache -cache:dl1 dl1:512:16:1:l -cache:dl2 dl2:262144:16:1:l -cache:il1 il1:512:16:1:l -cache:il2 dl2 cache4_heapsort1896265598
	sim-cache -cache:dl1 dl1:512:16:1:l -cache:dl2 dl2:131072:16:1:l -cache:il1 il1:512:16:1:l -cache:il2 dl2 cache4_heapsort1896265598
	sim-cache -cache:dl1 dl1:1:16:512:l -cache:dl2 dl2:1:16:262144:l -cache:il1 il1:1:16:512:l -cache:il2 dl2 cache4_heapsort1896265598
	sim-cache -cache:dl1 dl1:1:16:512:l -cache:dl2 dl2:1:16:131072:l -cache:il1 il1:1:16:512:l -cache:il2 dl2 cache4_heapsort1896265598
	sim-bpred -bpred bimod -bpred:bimod 512 cache4_heapsort1896265598
	sim-bpred -bpred bimod -bpred:bimod 1024 cache4_heapsort1896265598
	sim-bpred -bpred bimod -bpred:bimod 2048 cache4_heapsort1896265598
	sim-bpred -bpred 2lev -bpred:2lev 1 512 10 1 cache4_heapsort1896265598
	sim-bpred -bpred 2lev -bpred:2lev 1 1024 10 1 cache4_heapsort1896265598
	sim-bpred -bpred 2lev -bpred:2lev 1 2048 10 1 cache4_heapsort1896265598
	sim-bpred -bpred 2lev -bpred:2lev 1 4096 10 1 cache4_heapsort1896265598
	sslittle-na-sstrix-gcc -Wall -O3 -funroll-loops -finline-functions  -DRANDOM_SIZE=8192 -DOFFSET=6 -DSORT=cache4_heapsort sorts/cache4_heapsort454530916.c simpleMain.c -o cache4_heapsort1896265598
	sim-cache -cache:dl1 dl1:512:16:1:l -cache:dl2 dl2:262144:16:1:l -cache:il1 il1:512:16:1:l -cache:il2 dl2 cache4_heapsort1896265598
	sim-cache -cache:dl1 dl1:512:16:1:l -cache:dl2 dl2:131072:16:1:l -cache:il1 il1:512:16:1:l -cache:il2 dl2 cache4_heapsort1896265598
	sim-cache -cache:dl1 dl1:1:16:512:l -cache:dl2 dl2:1:16:262144:l -cache:il1 il1:1:16:512:l -cache:il2 dl2 cache4_heapsort1896265598
	sim-cache -cache:dl1 dl1:1:16:512:l -cache:dl2 dl2:1:16:131072:l -cache:il1 il1:1:16:512:l -cache:il2 dl2 cache4_heapsort1896265598
	sim-bpred -bpred bimod -bpred:bimod 512 cache4_heapsort1896265598
	sim-bpred -bpred bimod -bpred:bimod 1024 cache4_heapsort1896265598
	sim-bpred -bpred bimod -bpred:bimod 2048 cache4_heapsort1896265598
	sim-bpred -bpred 2lev -bpred:2lev 1 512 10 1 cache4_heapsort1896265598
	sim-bpred -bpred 2lev -bpred:2lev 1 1024 10 1 cache4_heapsort1896265598
	sim-bpred -bpred 2lev -bpred:2lev 1 2048 10 1 cache4_heapsort1896265598
	sim-bpred -bpred 2lev -bpred:2lev 1 4096 10 1 cache4_heapsort1896265598
	sslittle-na-sstrix-gcc -Wall -O3 -funroll-loops -finline-functions  -DRANDOM_SIZE=16384 -DOFFSET=6 -DSORT=cache4_heapsort sorts/cache4_heapsort454530916.c simpleMain.c -o cache4_heapsort1896265598
	sim-cache -cache:dl1 dl1:512:16:1:l -cache:dl2 dl2:262144:16:1:l -cache:il1 il1:512:16:1:l -cache:il2 dl2 cache4_heapsort1896265598
	sim-cache -cache:dl1 dl1:512:16:1:l -cache:dl2 dl2:131072:16:1:l -cache:il1 il1:512:16:1:l -cache:il2 dl2 cache4_heapsort1896265598
	sim-cache -cache:dl1 dl1:1:16:512:l -cache:dl2 dl2:1:16:262144:l -cache:il1 il1:1:16:512:l -cache:il2 dl2 cache4_heapsort1896265598
	sim-cache -cache:dl1 dl1:1:16:512:l -cache:dl2 dl2:1:16:131072:l -cache:il1 il1:1:16:512:l -cache:il2 dl2 cache4_heapsort1896265598
	sim-bpred -bpred bimod -bpred:bimod 512 cache4_heapsort1896265598
	sim-bpred -bpred bimod -bpred:bimod 1024 cache4_heapsort1896265598
	sim-bpred -bpred bimod -bpred:bimod 2048 cache4_heapsort1896265598
	sim-bpred -bpred 2lev -bpred:2lev 1 512 10 1 cache4_heapsort1896265598
	sim-bpred -bpred 2lev -bpred:2lev 1 1024 10 1 cache4_heapsort1896265598
	sim-bpred -bpred 2lev -bpred:2lev 1 2048 10 1 cache4_heapsort1896265598
	sim-bpred -bpred 2lev -bpred:2lev 1 4096 10 1 cache4_heapsort1896265598
	sslittle-na-sstrix-gcc -Wall -O3 -funroll-loops -finline-functions  -DRANDOM_SIZE=32768 -DOFFSET=6 -DSORT=cache4_heapsort sorts/cache4_heapsort454530916.c simpleMain.c -o cache4_heapsort1896265598
	sim-cache -cache:dl1 dl1:512:16:1:l -cache:dl2 dl2:262144:16:1:l -cache:il1 il1:512:16:1:l -cache:il2 dl2 cache4_heapsort1896265598
	sim-cache -cache:dl1 dl1:512:16:1:l -cache:dl2 dl2:131072:16:1:l -cache:il1 il1:512:16:1:l -cache:il2 dl2 cache4_heapsort1896265598
	sim-cache -cache:dl1 dl1:1:16:512:l -cache:dl2 dl2:1:16:262144:l -cache:il1 il1:1:16:512:l -cache:il2 dl2 cache4_heapsort1896265598
	sim-cache -cache:dl1 dl1:1:16:512:l -cache:dl2 dl2:1:16:131072:l -cache:il1 il1:1:16:512:l -cache:il2 dl2 cache4_heapsort1896265598
	sim-bpred -bpred bimod -bpred:bimod 512 cache4_heapsort1896265598
	sim-bpred -bpred bimod -bpred:bimod 1024 cache4_heapsort1896265598
	sim-bpred -bpred bimod -bpred:bimod 2048 cache4_heapsort1896265598
	sim-bpred -bpred 2lev -bpred:2lev 1 512 10 1 cache4_heapsort1896265598
	sim-bpred -bpred 2lev -bpred:2lev 1 1024 10 1 cache4_heapsort1896265598
	sim-bpred -bpred 2lev -bpred:2lev 1 2048 10 1 cache4_heapsort1896265598
	sim-bpred -bpred 2lev -bpred:2lev 1 4096 10 1 cache4_heapsort1896265598
	sslittle-na-sstrix-gcc -Wall -O3 -funroll-loops -finline-functions  -DRANDOM_SIZE=65536 -DOFFSET=6 -DSORT=cache4_heapsort sorts/cache4_heapsort454530916.c simpleMain.c -o cache4_heapsort1896265598
	sim-cache -cache:dl1 dl1:512:16:1:l -cache:dl2 dl2:262144:16:1:l -cache:il1 il1:512:16:1:l -cache:il2 dl2 cache4_heapsort1896265598
	sim-cache -cache:dl1 dl1:512:16:1:l -cache:dl2 dl2:131072:16:1:l -cache:il1 il1:512:16:1:l -cache:il2 dl2 cache4_heapsort1896265598
	sim-cache -cache:dl1 dl1:1:16:512:l -cache:dl2 dl2:1:16:262144:l -cache:il1 il1:1:16:512:l -cache:il2 dl2 cache4_heapsort1896265598
	sim-cache -cache:dl1 dl1:1:16:512:l -cache:dl2 dl2:1:16:131072:l -cache:il1 il1:1:16:512:l -cache:il2 dl2 cache4_heapsort1896265598
	sim-bpred -bpred bimod -bpred:bimod 512 cache4_heapsort1896265598
	sim-bpred -bpred bimod -bpred:bimod 1024 cache4_heapsort1896265598
	sim-bpred -bpred bimod -bpred:bimod 2048 cache4_heapsort1896265598
	sim-bpred -bpred 2lev -bpred:2lev 1 512 10 1 cache4_heapsort1896265598
	sim-bpred -bpred 2lev -bpred:2lev 1 1024 10 1 cache4_heapsort1896265598
	sim-bpred -bpred 2lev -bpred:2lev 1 2048 10 1 cache4_heapsort1896265598
	sim-bpred -bpred 2lev -bpred:2lev 1 4096 10 1 cache4_heapsort1896265598
	sslittle-na-sstrix-gcc -Wall -O3 -funroll-loops -finline-functions  -DRANDOM_SIZE=131072 -DOFFSET=6 -DSORT=cache4_heapsort sorts/cache4_heapsort454530916.c simpleMain.c -o cache4_heapsort1896265598
	sim-cache -cache:dl1 dl1:512:16:1:l -cache:dl2 dl2:262144:16:1:l -cache:il1 il1:512:16:1:l -cache:il2 dl2 cache4_heapsort1896265598
	sim-cache -cache:dl1 dl1:512:16:1:l -cache:dl2 dl2:131072:16:1:l -cache:il1 il1:512:16:1:l -cache:il2 dl2 cache4_heapsort1896265598
	sim-cache -cache:dl1 dl1:1:16:512:l -cache:dl2 dl2:1:16:262144:l -cache:il1 il1:1:16:512:l -cache:il2 dl2 cache4_heapsort1896265598
	sim-cache -cache:dl1 dl1:1:16:512:l -cache:dl2 dl2:1:16:131072:l -cache:il1 il1:1:16:512:l -cache:il2 dl2 cache4_heapsort1896265598
	sim-bpred -bpred bimod -bpred:bimod 512 cache4_heapsort1896265598
	sim-bpred -bpred bimod -bpred:bimod 1024 cache4_heapsort1896265598
	sim-bpred -bpred bimod -bpred:bimod 2048 cache4_heapsort1896265598
	sim-bpred -bpred 2lev -bpred:2lev 1 512 10 1 cache4_heapsort1896265598
	sim-bpred -bpred 2lev -bpred:2lev 1 1024 10 1 cache4_heapsort1896265598
	sim-bpred -bpred 2lev -bpred:2lev 1 2048 10 1 cache4_heapsort1896265598
	sim-bpred -bpred 2lev -bpred:2lev 1 4096 10 1 cache4_heapsort1896265598
	sslittle-na-sstrix-gcc -Wall -O3 -funroll-loops -finline-functions  -DRANDOM_SIZE=262144 -DOFFSET=6 -DSORT=cache4_heapsort sorts/cache4_heapsort454530916.c simpleMain.c -o cache4_heapsort1896265598
	sim-cache -cache:dl1 dl1:512:16:1:l -cache:dl2 dl2:262144:16:1:l -cache:il1 il1:512:16:1:l -cache:il2 dl2 cache4_heapsort1896265598
	sim-cache -cache:dl1 dl1:512:16:1:l -cache:dl2 dl2:131072:16:1:l -cache:il1 il1:512:16:1:l -cache:il2 dl2 cache4_heapsort1896265598
	sim-cache -cache:dl1 dl1:1:16:512:l -cache:dl2 dl2:1:16:262144:l -cache:il1 il1:1:16:512:l -cache:il2 dl2 cache4_heapsort1896265598
	sim-cache -cache:dl1 dl1:1:16:512:l -cache:dl2 dl2:1:16:131072:l -cache:il1 il1:1:16:512:l -cache:il2 dl2 cache4_heapsort1896265598
	sim-bpred -bpred bimod -bpred:bimod 512 cache4_heapsort1896265598
	sim-bpred -bpred bimod -bpred:bimod 1024 cache4_heapsort1896265598
	sim-bpred -bpred bimod -bpred:bimod 2048 cache4_heapsort1896265598
	sim-bpred -bpred 2lev -bpred:2lev 1 512 10 1 cache4_heapsort1896265598
	sim-bpred -bpred 2lev -bpred:2lev 1 1024 10 1 cache4_heapsort1896265598
	sim-bpred -bpred 2lev -bpred:2lev 1 2048 10 1 cache4_heapsort1896265598
	sim-bpred -bpred 2lev -bpred:2lev 1 4096 10 1 cache4_heapsort1896265598
	sslittle-na-sstrix-gcc -Wall -O3 -funroll-loops -finline-functions  -DRANDOM_SIZE=524288 -DOFFSET=6 -DSORT=cache4_heapsort sorts/cache4_heapsort454530916.c simpleMain.c -o cache4_heapsort1896265598
	sim-cache -cache:dl1 dl1:512:16:1:l -cache:dl2 dl2:262144:16:1:l -cache:il1 il1:512:16:1:l -cache:il2 dl2 cache4_heapsort1896265598
	sim-cache -cache:dl1 dl1:512:16:1:l -cache:dl2 dl2:131072:16:1:l -cache:il1 il1:512:16:1:l -cache:il2 dl2 cache4_heapsort1896265598
	sim-cache -cache:dl1 dl1:1:16:512:l -cache:dl2 dl2:1:16:262144:l -cache:il1 il1:1:16:512:l -cache:il2 dl2 cache4_heapsort1896265598
	sim-cache -cache:dl1 dl1:1:16:512:l -cache:dl2 dl2:1:16:131072:l -cache:il1 il1:1:16:512:l -cache:il2 dl2 cache4_heapsort1896265598
	sim-bpred -bpred bimod -bpred:bimod 512 cache4_heapsort1896265598
	sim-bpred -bpred bimod -bpred:bimod 1024 cache4_heapsort1896265598
	sim-bpred -bpred bimod -bpred:bimod 2048 cache4_heapsort1896265598
	sim-bpred -bpred 2lev -bpred:2lev 1 512 10 1 cache4_heapsort1896265598
	sim-bpred -bpred 2lev -bpred:2lev 1 1024 10 1 cache4_heapsort1896265598
	sim-bpred -bpred 2lev -bpred:2lev 1 2048 10 1 cache4_heapsort1896265598
	sim-bpred -bpred 2lev -bpred:2lev 1 4096 10 1 cache4_heapsort1896265598
	sslittle-na-sstrix-gcc -Wall -O3 -funroll-loops -finline-functions  -DRANDOM_SIZE=1048576 -DOFFSET=6 -DSORT=cache4_heapsort sorts/cache4_heapsort454530916.c simpleMain.c -o cache4_heapsort1896265598
	sim-cache -cache:dl1 dl1:512:16:1:l -cache:dl2 dl2:262144:16:1:l -cache:il1 il1:512:16:1:l -cache:il2 dl2 cache4_heapsort1896265598
	sim-cache -cache:dl1 dl1:512:16:1:l -cache:dl2 dl2:131072:16:1:l -cache:il1 il1:512:16:1:l -cache:il2 dl2 cache4_heapsort1896265598
	sim-cache -cache:dl1 dl1:1:16:512:l -cache:dl2 dl2:1:16:262144:l -cache:il1 il1:1:16:512:l -cache:il2 dl2 cache4_heapsort1896265598
	sim-cache -cache:dl1 dl1:1:16:512:l -cache:dl2 dl2:1:16:131072:l -cache:il1 il1:1:16:512:l -cache:il2 dl2 cache4_heapsort1896265598
	sim-bpred -bpred bimod -bpred:bimod 512 cache4_heapsort1896265598
	sim-bpred -bpred bimod -bpred:bimod 1024 cache4_heapsort1896265598
	sim-bpred -bpred bimod -bpred:bimod 2048 cache4_heapsort1896265598
	sim-bpred -bpred 2lev -bpred:2lev 1 512 10 1 cache4_heapsort1896265598
	sim-bpred -bpred 2lev -bpred:2lev 1 1024 10 1 cache4_heapsort1896265598
	sim-bpred -bpred 2lev -bpred:2lev 1 2048 10 1 cache4_heapsort1896265598
	sim-bpred -bpred 2lev -bpred:2lev 1 4096 10 1 cache4_heapsort1896265598
	sslittle-na-sstrix-gcc -Wall -O3 -funroll-loops -finline-functions  -DRANDOM_SIZE=2097152 -DOFFSET=6 -DSORT=cache4_heapsort sorts/cache4_heapsort454530916.c simpleMain.c -o cache4_heapsort1896265598
	sim-cache -cache:dl1 dl1:512:16:1:l -cache:dl2 dl2:262144:16:1:l -cache:il1 il1:512:16:1:l -cache:il2 dl2 cache4_heapsort1896265598
	sim-cache -cache:dl1 dl1:512:16:1:l -cache:dl2 dl2:131072:16:1:l -cache:il1 il1:512:16:1:l -cache:il2 dl2 cache4_heapsort1896265598
	sim-cache -cache:dl1 dl1:1:16:512:l -cache:dl2 dl2:1:16:262144:l -cache:il1 il1:1:16:512:l -cache:il2 dl2 cache4_heapsort1896265598
	sim-cache -cache:dl1 dl1:1:16:512:l -cache:dl2 dl2:1:16:131072:l -cache:il1 il1:1:16:512:l -cache:il2 dl2 cache4_heapsort1896265598
	sim-bpred -bpred bimod -bpred:bimod 512 cache4_heapsort1896265598
	sim-bpred -bpred bimod -bpred:bimod 1024 cache4_heapsort1896265598
	sim-bpred -bpred bimod -bpred:bimod 2048 cache4_heapsort1896265598
	sim-bpred -bpred 2lev -bpred:2lev 1 512 10 1 cache4_heapsort1896265598
	sim-bpred -bpred 2lev -bpred:2lev 1 1024 10 1 cache4_heapsort1896265598
	sim-bpred -bpred 2lev -bpred:2lev 1 2048 10 1 cache4_heapsort1896265598
	sim-bpred -bpred 2lev -bpred:2lev 1 4096 10 1 cache4_heapsort1896265598
	sslittle-na-sstrix-gcc -Wall -O3 -funroll-loops -finline-functions  -DRANDOM_SIZE=4194304 -DOFFSET=6 -DSORT=cache4_heapsort sorts/cache4_heapsort454530916.c simpleMain.c -o cache4_heapsort1896265598
	sim-cache -cache:dl1 dl1:512:16:1:l -cache:dl2 dl2:262144:16:1:l -cache:il1 il1:512:16:1:l -cache:il2 dl2 cache4_heapsort1896265598
	sim-cache -cache:dl1 dl1:512:16:1:l -cache:dl2 dl2:131072:16:1:l -cache:il1 il1:512:16:1:l -cache:il2 dl2 cache4_heapsort1896265598
	sim-cache -cache:dl1 dl1:1:16:512:l -cache:dl2 dl2:1:16:262144:l -cache:il1 il1:1:16:512:l -cache:il2 dl2 cache4_heapsort1896265598
	sim-cache -cache:dl1 dl1:1:16:512:l -cache:dl2 dl2:1:16:131072:l -cache:il1 il1:1:16:512:l -cache:il2 dl2 cache4_heapsort1896265598
	sim-bpred -bpred bimod -bpred:bimod 512 cache4_heapsort1896265598
	sim-bpred -bpred bimod -bpred:bimod 1024 cache4_heapsort1896265598
	sim-bpred -bpred bimod -bpred:bimod 2048 cache4_heapsort1896265598
	sim-bpred -bpred 2lev -bpred:2lev 1 512 10 1 cache4_heapsort1896265598
	sim-bpred -bpred 2lev -bpred:2lev 1 1024 10 1 cache4_heapsort1896265598
	sim-bpred -bpred 2lev -bpred:2lev 1 2048 10 1 cache4_heapsort1896265598
	sim-bpred -bpred 2lev -bpred:2lev 1 4096 10 1 cache4_heapsort1896265598
