Sat Jul  2 21:47:12 2005
Run as: "./do_simple -c random.org3 -o 3 memory_tuned_radixsort"
-------------------------------------------------------------------------------------------------
sim-cache                                     4096 |         4096 |         4096 |         4096 |         8192 |         8192 |         8192 |         8192 |        16384 |        16384 |        16384 |        16384 |        32768 |        32768 |        32768 |        32768 |        65536 |        65536 |        65536 |        65536 |       131072 |       131072 |       131072 |       131072 |       262144 |       262144 |       262144 |       262144 |       524288 |       524288 |       524288 |       524288 |      1048576 |      1048576 |      1048576 |      1048576 |      2097152 |      2097152 |      2097152 |      2097152 |      4194304 |      4194304 |      4194304 |      4194304 |
-cache:dl1 dl1:256:32:1:l -cache:dl2 dl2:131072:32:1:l -cache:il1 il1:256:32:1:l -cache:il2 dl2
-cache:dl1 dl1:256:32:1:l -cache:dl2 dl2:65536:32:1:l -cache:il1 il1:256:32:1:l -cache:il2 dl2
-cache:dl1 dl1:1:32:256:l -cache:dl2 dl2:1:32:131072:l -cache:il1 il1:1:32:256:l -cache:il2 dl2
-cache:dl1 dl1:1:32:256:l -cache:dl2 dl2:1:32:65536:l -cache:il1 il1:1:32:256:l -cache:il2 dl2
-------------------------------------------------------------------------------------------------
sim_num_insn                                378641 |       378641 |       378641 |       378641 |       744351 |       744351 |       744351 |       744351 |      1475489 |      1475489 |      1475489 |      1475489 |      2937762 |      2937762 |      2937762 |      2937762 |      5862306 |      5862306 |      5862306 |      5862306 |     11711395 |     11711395 |     11711395 |     11711395 |     23409571 |     23409571 |     23409571 |     23409571 |     46805923 |     46805923 |     46805923 |     46805923 |     93611103 |     93611103 |     93611103 |     93611103 |    187205735 |    187205735 |    187205735 |    187205735 |    374394991 |    374394991 |    374394991 |    374394991 |
sim_num_refs                                138909 |       138909 |       138909 |       138909 |       270025 |       270025 |       270025 |       270025 |       532169 |       532169 |       532169 |       532169 |      1056457 |      1056457 |      1056457 |      1056457 |      2105033 |      2105033 |      2105033 |      2105033 |      4202185 |      4202185 |      4202185 |      4202185 |      8396489 |      8396489 |      8396489 |      8396489 |     16785097 |     16785097 |     16785097 |     16785097 |     33571575 |     33571575 |     33571575 |     33571575 |     67132151 |     67132151 |     67132151 |     67132151 |    134253303 |    134253303 |    134253303 |    134253303 |
sim_elapsed_time                                 1 |            1 |           10 |            5 |            1 |            1 |           15 |            8 |            1 |            1 |           25 |           13 |            1 |            1 |           46 |           23 |            2 |            2 |           85 |           41 |            4 |            4 |          155 |           69 |            8 |            7 |          265 |           93 |           15 |           15 |          356 |          100 |           30 |           30 |          370 |          117 |           61 |           60 |          405 |          151 |          121 |          121 |          474 |          220 |
sim_inst_rate                          378641.0000 |  378641.0000 |   37864.1000 |   75728.2000 |  744351.0000 |  744351.0000 |   49623.4000 |   93043.8750 | 1475489.0000 | 1475489.0000 |   59019.5600 |  113499.1538 | 2937762.0000 | 2937762.0000 |   63864.3913 |  127728.7826 | 2931153.0000 | 2931153.0000 |   68968.3059 |  142983.0732 | 2927848.7500 | 2927848.7500 |   75557.3871 |  169730.3623 | 2926196.3750 | 3344224.4286 |   88338.0038 |  251715.8172 | 3120394.8667 | 3120394.8667 |  131477.3118 |  468059.2300 | 3120370.1000 | 3120370.1000 |  253002.9811 |  800094.8974 | 3068946.4754 | 3120095.5833 |  462236.3827 | 1239773.0795 | 3094173.4793 | 3094173.4793 |  789862.8502 | 1701795.4136 |
il1.accesses                                378641 |       378641 |       378641 |       378641 |       744351 |       744351 |       744351 |       744351 |      1475489 |      1475489 |      1475489 |      1475489 |      2937762 |      2937762 |      2937762 |      2937762 |      5862306 |      5862306 |      5862306 |      5862306 |     11711395 |     11711395 |     11711395 |     11711395 |     23409571 |     23409571 |     23409571 |     23409571 |     46805923 |     46805923 |     46805923 |     46805923 |     93611103 |     93611103 |     93611103 |     93611103 |    187205735 |    187205735 |    187205735 |    187205735 |    374394991 |    374394991 |    374394991 |    374394991 |
il1.hits                                    378184 |       378184 |       378240 |       378240 |       743873 |       743873 |       743930 |       743930 |      1475027 |      1475027 |      1475104 |      1475104 |      2937283 |      2937283 |      2937339 |      2937339 |      5861827 |      5861827 |      5861883 |      5861883 |     11710916 |     11710916 |     11710972 |     11710972 |     23409092 |     23409092 |     23409148 |     23409148 |     46805444 |     46805444 |     46805500 |     46805500 |     93610578 |     93610578 |     93610645 |     93610645 |    187205210 |    187205210 |    187205277 |    187205277 |    374394466 |    374394466 |    374394533 |    374394533 |
il1.misses                                     457 |          457 |          401 |          401 |          478 |          478 |          421 |          421 |          462 |          462 |          385 |          385 |          479 |          479 |          423 |          423 |          479 |          479 |          423 |          423 |          479 |          479 |          423 |          423 |          479 |          479 |          423 |          423 |          479 |          479 |          423 |          423 |          525 |          525 |          458 |          458 |          525 |          525 |          458 |          458 |          525 |          525 |          458 |          458 |
il1.replacements                               253 |          253 |          145 |          145 |          270 |          270 |          165 |          165 |          257 |          257 |          129 |          129 |          272 |          272 |          167 |          167 |          272 |          272 |          167 |          167 |          272 |          272 |          167 |          167 |          272 |          272 |          167 |          167 |          272 |          272 |          167 |          167 |          308 |          308 |          202 |          202 |          308 |          308 |          202 |          202 |          308 |          308 |          202 |          202 |
il1.writebacks                                   0 |            0 |            0 |            0 |            0 |            0 |            0 |            0 |            0 |            0 |            0 |            0 |            0 |            0 |            0 |            0 |            0 |            0 |            0 |            0 |            0 |            0 |            0 |            0 |            0 |            0 |            0 |            0 |            0 |            0 |            0 |            0 |            0 |            0 |            0 |            0 |            0 |            0 |            0 |            0 |            0 |            0 |            0 |            0 |
il1.invalidations                                0 |            0 |            0 |            0 |            0 |            0 |            0 |            0 |            0 |            0 |            0 |            0 |            0 |            0 |            0 |            0 |            0 |            0 |            0 |            0 |            0 |            0 |            0 |            0 |            0 |            0 |            0 |            0 |            0 |            0 |            0 |            0 |            0 |            0 |            0 |            0 |            0 |            0 |            0 |            0 |            0 |            0 |            0 |            0 |
il1.miss_rate                               0.0012 |       0.0012 |       0.0011 |       0.0011 |       0.0006 |       0.0006 |       0.0006 |       0.0006 |       0.0003 |       0.0003 |       0.0003 |       0.0003 |       0.0002 |       0.0002 |       0.0001 |       0.0001 |       0.0001 |       0.0001 |       0.0001 |       0.0001 |       0.0000 |       0.0000 |       0.0000 |       0.0000 |       0.0000 |       0.0000 |       0.0000 |       0.0000 |       0.0000 |       0.0000 |       0.0000 |       0.0000 |       0.0000 |       0.0000 |       0.0000 |       0.0000 |       0.0000 |       0.0000 |       0.0000 |       0.0000 |       0.0000 |       0.0000 |       0.0000 |       0.0000 |
il1.repl_rate                               0.0007 |       0.0007 |       0.0004 |       0.0004 |       0.0004 |       0.0004 |       0.0002 |       0.0002 |       0.0002 |       0.0002 |       0.0001 |       0.0001 |       0.0001 |       0.0001 |       0.0001 |       0.0001 |       0.0000 |       0.0000 |       0.0000 |       0.0000 |       0.0000 |       0.0000 |       0.0000 |       0.0000 |       0.0000 |       0.0000 |       0.0000 |       0.0000 |       0.0000 |       0.0000 |       0.0000 |       0.0000 |       0.0000 |       0.0000 |       0.0000 |       0.0000 |       0.0000 |       0.0000 |       0.0000 |       0.0000 |       0.0000 |       0.0000 |       0.0000 |       0.0000 |
il1.wb_rate                                 0.0000 |       0.0000 |       0.0000 |       0.0000 |       0.0000 |       0.0000 |       0.0000 |       0.0000 |       0.0000 |       0.0000 |       0.0000 |       0.0000 |       0.0000 |       0.0000 |       0.0000 |       0.0000 |       0.0000 |       0.0000 |       0.0000 |       0.0000 |       0.0000 |       0.0000 |       0.0000 |       0.0000 |       0.0000 |       0.0000 |       0.0000 |       0.0000 |       0.0000 |       0.0000 |       0.0000 |       0.0000 |       0.0000 |       0.0000 |       0.0000 |       0.0000 |       0.0000 |       0.0000 |       0.0000 |       0.0000 |       0.0000 |       0.0000 |       0.0000 |       0.0000 |
il1.inv_rate                                0.0000 |       0.0000 |       0.0000 |       0.0000 |       0.0000 |       0.0000 |       0.0000 |       0.0000 |       0.0000 |       0.0000 |       0.0000 |       0.0000 |       0.0000 |       0.0000 |       0.0000 |       0.0000 |       0.0000 |       0.0000 |       0.0000 |       0.0000 |       0.0000 |       0.0000 |       0.0000 |       0.0000 |       0.0000 |       0.0000 |       0.0000 |       0.0000 |       0.0000 |       0.0000 |       0.0000 |       0.0000 |       0.0000 |       0.0000 |       0.0000 |       0.0000 |       0.0000 |       0.0000 |       0.0000 |       0.0000 |       0.0000 |       0.0000 |       0.0000 |       0.0000 |
dl1.accesses                                155375 |       155375 |       155375 |       155375 |       302875 |       302875 |       302875 |       302875 |       597787 |       597787 |       597787 |       597787 |      1187611 |      1187611 |      1187611 |      1187611 |      2367259 |      2367259 |      2367259 |      2367259 |      4726555 |      4726555 |      4726555 |      4726555 |      9445147 |      9445147 |      9445147 |      9445147 |     18882331 |     18882331 |     18882331 |     18882331 |     37765961 |     37765961 |     37765961 |     37765961 |     75520841 |     75520841 |     75520841 |     75520841 |    151030601 |    151030601 |    151030601 |    151030601 |
dl1.hits                                    138946 |       138946 |       143877 |       143877 |       269629 |       269629 |       280715 |       280715 |       530233 |       530233 |       554346 |       554346 |      1052812 |      1052812 |      1101393 |      1101393 |      2095264 |      2095264 |      2195313 |      2195313 |      4160359 |      4160359 |      4383245 |      4383245 |      8261189 |      8261189 |      8759200 |      8759200 |     16420015 |     16420015 |     17511431 |     17511431 |     33010405 |     33010405 |     35023787 |     35023787 |     66380826 |     66380826 |     70038250 |     70038250 |    133316858 |    133316858 |    140066889 |    140066889 |
dl1.misses                                   16429 |        16429 |        11498 |        11498 |        33246 |        33246 |        22160 |        22160 |        67554 |        67554 |        43441 |        43441 |       134799 |       134799 |        86218 |        86218 |       271995 |       271995 |       171946 |       171946 |       566196 |       566196 |       343310 |       343310 |      1183958 |      1183958 |       685947 |       685947 |      2462316 |      2462316 |      1370900 |      1370900 |      4755556 |      4755556 |      2742174 |      2742174 |      9140015 |      9140015 |      5482591 |      5482591 |     17713743 |     17713743 |     10963712 |     10963712 |
dl1.replacements                             16173 |        16173 |        11242 |        11242 |        32990 |        32990 |        21904 |        21904 |        67298 |        67298 |        43185 |        43185 |       134543 |       134543 |        85962 |        85962 |       271739 |       271739 |       171690 |       171690 |       565940 |       565940 |       343054 |       343054 |      1183702 |      1183702 |       685691 |       685691 |      2462060 |      2462060 |      1370644 |      1370644 |      4755300 |      4755300 |      2741918 |      2741918 |      9139759 |      9139759 |      5482335 |      5482335 |     17713487 |     17713487 |     10963456 |     10963456 |
dl1.writebacks                               13547 |        13547 |         8716 |         8716 |        27582 |        27582 |        16808 |        16808 |        56402 |        56402 |        32963 |        32963 |       112666 |       112666 |        65499 |        65499 |       227920 |       227920 |       130748 |       130748 |       478144 |       478144 |       261149 |       261149 |      1008333 |      1008333 |       521868 |       521868 |      2111060 |      2111060 |      1042979 |      1042979 |      4053379 |      4053379 |      2086187 |      2086187 |      7735249 |      7735249 |      4171242 |      4171242 |     14904970 |     14904970 |      8341645 |      8341645 |
dl1.invalidations                                0 |            0 |            0 |            0 |            0 |            0 |            0 |            0 |            0 |            0 |            0 |            0 |            0 |            0 |            0 |            0 |            0 |            0 |            0 |            0 |            0 |            0 |            0 |            0 |            0 |            0 |            0 |            0 |            0 |            0 |            0 |            0 |            0 |            0 |            0 |            0 |            0 |            0 |            0 |            0 |            0 |            0 |            0 |            0 |
dl1.miss_rate                               0.1057 |       0.1057 |       0.0740 |       0.0740 |       0.1098 |       0.1098 |       0.0732 |       0.0732 |       0.1130 |       0.1130 |       0.0727 |       0.0727 |       0.1135 |       0.1135 |       0.0726 |       0.0726 |       0.1149 |       0.1149 |       0.0726 |       0.0726 |       0.1198 |       0.1198 |       0.0726 |       0.0726 |       0.1254 |       0.1254 |       0.0726 |       0.0726 |       0.1304 |       0.1304 |       0.0726 |       0.0726 |       0.1259 |       0.1259 |       0.0726 |       0.0726 |       0.1210 |       0.1210 |       0.0726 |       0.0726 |       0.1173 |       0.1173 |       0.0726 |       0.0726 |
dl1.repl_rate                               0.1041 |       0.1041 |       0.0724 |       0.0724 |       0.1089 |       0.1089 |       0.0723 |       0.0723 |       0.1126 |       0.1126 |       0.0722 |       0.0722 |       0.1133 |       0.1133 |       0.0724 |       0.0724 |       0.1148 |       0.1148 |       0.0725 |       0.0725 |       0.1197 |       0.1197 |       0.0726 |       0.0726 |       0.1253 |       0.1253 |       0.0726 |       0.0726 |       0.1304 |       0.1304 |       0.0726 |       0.0726 |       0.1259 |       0.1259 |       0.0726 |       0.0726 |       0.1210 |       0.1210 |       0.0726 |       0.0726 |       0.1173 |       0.1173 |       0.0726 |       0.0726 |
dl1.wb_rate                                 0.0872 |       0.0872 |       0.0561 |       0.0561 |       0.0911 |       0.0911 |       0.0555 |       0.0555 |       0.0944 |       0.0944 |       0.0551 |       0.0551 |       0.0949 |       0.0949 |       0.0552 |       0.0552 |       0.0963 |       0.0963 |       0.0552 |       0.0552 |       0.1012 |       0.1012 |       0.0553 |       0.0553 |       0.1068 |       0.1068 |       0.0553 |       0.0553 |       0.1118 |       0.1118 |       0.0552 |       0.0552 |       0.1073 |       0.1073 |       0.0552 |       0.0552 |       0.1024 |       0.1024 |       0.0552 |       0.0552 |       0.0987 |       0.0987 |       0.0552 |       0.0552 |
dl1.inv_rate                                0.0000 |       0.0000 |       0.0000 |       0.0000 |       0.0000 |       0.0000 |       0.0000 |       0.0000 |       0.0000 |       0.0000 |       0.0000 |       0.0000 |       0.0000 |       0.0000 |       0.0000 |       0.0000 |       0.0000 |       0.0000 |       0.0000 |       0.0000 |       0.0000 |       0.0000 |       0.0000 |       0.0000 |       0.0000 |       0.0000 |       0.0000 |       0.0000 |       0.0000 |       0.0000 |       0.0000 |       0.0000 |       0.0000 |       0.0000 |       0.0000 |       0.0000 |       0.0000 |       0.0000 |       0.0000 |       0.0000 |       0.0000 |       0.0000 |       0.0000 |       0.0000 |
dl2.accesses                                 30433 |        30433 |        20615 |        20615 |        61306 |        61306 |        39389 |        39389 |       124418 |       124418 |        76789 |        76789 |       247944 |       247944 |       152140 |       152140 |       500394 |       500394 |       303117 |       303117 |      1044819 |      1044819 |       604882 |       604882 |      2192770 |      2192770 |      1208238 |      1208238 |      4573855 |      4573855 |      2414302 |      2414302 |      8809460 |      8809460 |      4828819 |      4828819 |     16875789 |     16875789 |      9654291 |      9654291 |     32619238 |     32619238 |     19305815 |     19305815 |
dl2.hits                                     28520 |        28520 |        18718 |        18718 |        58366 |        58366 |        36478 |        36478 |       119435 |       119435 |        71834 |        71834 |       238854 |       238854 |       143083 |       143083 |       483110 |       483110 |       285868 |       285868 |      1011151 |      1011151 |       571249 |       571249 |      2126334 |      2114285 |      1141837 |      1139419 |      4429796 |      4120259 |      2279414 |      1816950 |      7937778 |      7499290 |      3635165 |      3541937 |     14346366 |     14189039 |      7082550 |      7041732 |     27292629 |     27108897 |     14082682 |     14063579 |
dl2.misses                                    1913 |         1913 |         1897 |         1897 |         2940 |         2940 |         2911 |         2911 |         4983 |         4983 |         4955 |         4955 |         9090 |         9090 |         9057 |         9057 |        17284 |        17284 |        17249 |        17249 |        33668 |        33668 |        33633 |        33633 |        66436 |        78485 |        66401 |        68819 |       144059 |       453596 |       134888 |       597352 |       871682 |      1310170 |      1193654 |      1286882 |      2529423 |      2686750 |      2571741 |      2612559 |      5326609 |      5510341 |      5223133 |      5242236 |
dl2.replacements                               236 |          236 |            0 |            0 |          249 |          249 |            0 |            0 |          264 |          264 |            0 |            0 |          274 |          274 |            0 |            0 |          276 |          276 |            0 |            0 |          276 |          276 |            0 |            0 |          276 |        14061 |            0 |         3283 |        14099 |       388060 |         3816 |       531816 |       740610 |      1244634 |      1062582 |      1221346 |      2398351 |      2621214 |      2440669 |      2547023 |      5195537 |      5444805 |      5092061 |      5176700 |
dl2.writebacks                                 158 |          158 |            0 |            0 |          156 |          156 |            0 |            0 |          170 |          170 |            0 |            0 |          178 |          178 |            0 |            0 |          178 |          178 |            0 |            0 |          178 |          178 |            0 |            0 |          178 |        10612 |            0 |         3058 |        10592 |       300523 |         3591 |       296289 |       596171 |       661826 |       591905 |       624715 |      1292263 |      1380671 |      1248079 |      1280930 |      2713666 |      2885084 |      2560354 |      2593281 |
dl2.invalidations                                0 |            0 |            0 |            0 |            0 |            0 |            0 |            0 |            0 |            0 |            0 |            0 |            0 |            0 |            0 |            0 |            0 |            0 |            0 |            0 |            0 |            0 |            0 |            0 |            0 |            0 |            0 |            0 |            0 |            0 |            0 |            0 |            0 |            0 |            0 |            0 |            0 |            0 |            0 |            0 |            0 |            0 |            0 |            0 |
dl2.miss_rate                               0.0629 |       0.0629 |       0.0920 |       0.0920 |       0.0480 |       0.0480 |       0.0739 |       0.0739 |       0.0401 |       0.0401 |       0.0645 |       0.0645 |       0.0367 |       0.0367 |       0.0595 |       0.0595 |       0.0345 |       0.0345 |       0.0569 |       0.0569 |       0.0322 |       0.0322 |       0.0556 |       0.0556 |       0.0303 |       0.0358 |       0.0550 |       0.0570 |       0.0315 |       0.0992 |       0.0559 |       0.2474 |       0.0989 |       0.1487 |       0.2472 |       0.2665 |       0.1499 |       0.1592 |       0.2664 |       0.2706 |       0.1633 |       0.1689 |       0.2705 |       0.2715 |
dl2.repl_rate                               0.0078 |       0.0078 |       0.0000 |       0.0000 |       0.0041 |       0.0041 |       0.0000 |       0.0000 |       0.0021 |       0.0021 |       0.0000 |       0.0000 |       0.0011 |       0.0011 |       0.0000 |       0.0000 |       0.0006 |       0.0006 |       0.0000 |       0.0000 |       0.0003 |       0.0003 |       0.0000 |       0.0000 |       0.0001 |       0.0064 |       0.0000 |       0.0027 |       0.0031 |       0.0848 |       0.0016 |       0.2203 |       0.0841 |       0.1413 |       0.2201 |       0.2529 |       0.1421 |       0.1553 |       0.2528 |       0.2638 |       0.1593 |       0.1669 |       0.2638 |       0.2681 |
dl2.wb_rate                                 0.0052 |       0.0052 |       0.0000 |       0.0000 |       0.0025 |       0.0025 |       0.0000 |       0.0000 |       0.0014 |       0.0014 |       0.0000 |       0.0000 |       0.0007 |       0.0007 |       0.0000 |       0.0000 |       0.0004 |       0.0004 |       0.0000 |       0.0000 |       0.0002 |       0.0002 |       0.0000 |       0.0000 |       0.0001 |       0.0048 |       0.0000 |       0.0025 |       0.0023 |       0.0657 |       0.0015 |       0.1227 |       0.0677 |       0.0751 |       0.1226 |       0.1294 |       0.0766 |       0.0818 |       0.1293 |       0.1327 |       0.0832 |       0.0884 |       0.1326 |       0.1343 |
dl2.inv_rate                                0.0000 |       0.0000 |       0.0000 |       0.0000 |       0.0000 |       0.0000 |       0.0000 |       0.0000 |       0.0000 |       0.0000 |       0.0000 |       0.0000 |       0.0000 |       0.0000 |       0.0000 |       0.0000 |       0.0000 |       0.0000 |       0.0000 |       0.0000 |       0.0000 |       0.0000 |       0.0000 |       0.0000 |       0.0000 |       0.0000 |       0.0000 |       0.0000 |       0.0000 |       0.0000 |       0.0000 |       0.0000 |       0.0000 |       0.0000 |       0.0000 |       0.0000 |       0.0000 |       0.0000 |       0.0000 |       0.0000 |       0.0000 |       0.0000 |       0.0000 |       0.0000 |
itlb.accesses                               378641 |       378641 |       378641 |       378641 |       744351 |       744351 |       744351 |       744351 |      1475489 |      1475489 |      1475489 |      1475489 |      2937762 |      2937762 |      2937762 |      2937762 |      5862306 |      5862306 |      5862306 |      5862306 |     11711395 |     11711395 |     11711395 |     11711395 |     23409571 |     23409571 |     23409571 |     23409571 |     46805923 |     46805923 |     46805923 |     46805923 |     93611103 |     93611103 |     93611103 |     93611103 |    187205735 |    187205735 |    187205735 |    187205735 |    374394991 |    374394991 |    374394991 |    374394991 |
itlb.hits                                   378631 |       378631 |       378631 |       378631 |       744341 |       744341 |       744341 |       744341 |      1475479 |      1475479 |      1475479 |      1475479 |      2937752 |      2937752 |      2937752 |      2937752 |      5862296 |      5862296 |      5862296 |      5862296 |     11711385 |     11711385 |     11711385 |     11711385 |     23409561 |     23409561 |     23409561 |     23409561 |     46805913 |     46805913 |     46805913 |     46805913 |     93611093 |     93611093 |     93611093 |     93611093 |    187205725 |    187205725 |    187205725 |    187205725 |    374394981 |    374394981 |    374394981 |    374394981 |
itlb.misses                                     10 |           10 |           10 |           10 |           10 |           10 |           10 |           10 |           10 |           10 |           10 |           10 |           10 |           10 |           10 |           10 |           10 |           10 |           10 |           10 |           10 |           10 |           10 |           10 |           10 |           10 |           10 |           10 |           10 |           10 |           10 |           10 |           10 |           10 |           10 |           10 |           10 |           10 |           10 |           10 |           10 |           10 |           10 |           10 |
itlb.replacements                                0 |            0 |            0 |            0 |            0 |            0 |            0 |            0 |            0 |            0 |            0 |            0 |            0 |            0 |            0 |            0 |            0 |            0 |            0 |            0 |            0 |            0 |            0 |            0 |            0 |            0 |            0 |            0 |            0 |            0 |            0 |            0 |            0 |            0 |            0 |            0 |            0 |            0 |            0 |            0 |            0 |            0 |            0 |            0 |
itlb.writebacks                                  0 |            0 |            0 |            0 |            0 |            0 |            0 |            0 |            0 |            0 |            0 |            0 |            0 |            0 |            0 |            0 |            0 |            0 |            0 |            0 |            0 |            0 |            0 |            0 |            0 |            0 |            0 |            0 |            0 |            0 |            0 |            0 |            0 |            0 |            0 |            0 |            0 |            0 |            0 |            0 |            0 |            0 |            0 |            0 |
itlb.invalidations                               0 |            0 |            0 |            0 |            0 |            0 |            0 |            0 |            0 |            0 |            0 |            0 |            0 |            0 |            0 |            0 |            0 |            0 |            0 |            0 |            0 |            0 |            0 |            0 |            0 |            0 |            0 |            0 |            0 |            0 |            0 |            0 |            0 |            0 |            0 |            0 |            0 |            0 |            0 |            0 |            0 |            0 |            0 |            0 |
itlb.miss_rate                              0.0000 |       0.0000 |       0.0000 |       0.0000 |       0.0000 |       0.0000 |       0.0000 |       0.0000 |       0.0000 |       0.0000 |       0.0000 |       0.0000 |       0.0000 |       0.0000 |       0.0000 |       0.0000 |       0.0000 |       0.0000 |       0.0000 |       0.0000 |       0.0000 |       0.0000 |       0.0000 |       0.0000 |       0.0000 |       0.0000 |       0.0000 |       0.0000 |       0.0000 |       0.0000 |       0.0000 |       0.0000 |       0.0000 |       0.0000 |       0.0000 |       0.0000 |       0.0000 |       0.0000 |       0.0000 |       0.0000 |       0.0000 |       0.0000 |       0.0000 |       0.0000 |
itlb.repl_rate                              0.0000 |       0.0000 |       0.0000 |       0.0000 |       0.0000 |       0.0000 |       0.0000 |       0.0000 |       0.0000 |       0.0000 |       0.0000 |       0.0000 |       0.0000 |       0.0000 |       0.0000 |       0.0000 |       0.0000 |       0.0000 |       0.0000 |       0.0000 |       0.0000 |       0.0000 |       0.0000 |       0.0000 |       0.0000 |       0.0000 |       0.0000 |       0.0000 |       0.0000 |       0.0000 |       0.0000 |       0.0000 |       0.0000 |       0.0000 |       0.0000 |       0.0000 |       0.0000 |       0.0000 |       0.0000 |       0.0000 |       0.0000 |       0.0000 |       0.0000 |       0.0000 |
itlb.wb_rate                                0.0000 |       0.0000 |       0.0000 |       0.0000 |       0.0000 |       0.0000 |       0.0000 |       0.0000 |       0.0000 |       0.0000 |       0.0000 |       0.0000 |       0.0000 |       0.0000 |       0.0000 |       0.0000 |       0.0000 |       0.0000 |       0.0000 |       0.0000 |       0.0000 |       0.0000 |       0.0000 |       0.0000 |       0.0000 |       0.0000 |       0.0000 |       0.0000 |       0.0000 |       0.0000 |       0.0000 |       0.0000 |       0.0000 |       0.0000 |       0.0000 |       0.0000 |       0.0000 |       0.0000 |       0.0000 |       0.0000 |       0.0000 |       0.0000 |       0.0000 |       0.0000 |
itlb.inv_rate                               0.0000 |       0.0000 |       0.0000 |       0.0000 |       0.0000 |       0.0000 |       0.0000 |       0.0000 |       0.0000 |       0.0000 |       0.0000 |       0.0000 |       0.0000 |       0.0000 |       0.0000 |       0.0000 |       0.0000 |       0.0000 |       0.0000 |       0.0000 |       0.0000 |       0.0000 |       0.0000 |       0.0000 |       0.0000 |       0.0000 |       0.0000 |       0.0000 |       0.0000 |       0.0000 |       0.0000 |       0.0000 |       0.0000 |       0.0000 |       0.0000 |       0.0000 |       0.0000 |       0.0000 |       0.0000 |       0.0000 |       0.0000 |       0.0000 |       0.0000 |       0.0000 |
dtlb.accesses                               155375 |       155375 |       155375 |       155375 |       302875 |       302875 |       302875 |       302875 |       597787 |       597787 |       597787 |       597787 |      1187611 |      1187611 |      1187611 |      1187611 |      2367259 |      2367259 |      2367259 |      2367259 |      4726555 |      4726555 |      4726555 |      4726555 |      9445147 |      9445147 |      9445147 |      9445147 |     18882331 |     18882331 |     18882331 |     18882331 |     37765961 |     37765961 |     37765961 |     37765961 |     75520841 |     75520841 |     75520841 |     75520841 |    151030601 |    151030601 |    151030601 |    151030601 |
dtlb.hits                                   155360 |       155360 |       155360 |       155360 |       302852 |       302852 |       302852 |       302852 |       597748 |       597748 |       597748 |       597748 |      1187540 |      1187540 |      1187540 |      1187540 |      2367112 |      2367112 |      2367112 |      2367112 |      4716275 |      4716275 |      4716275 |      4716275 |      8918405 |      8918405 |      8918405 |      8918405 |     17523932 |     17523932 |     17523932 |     17523932 |     34463452 |     34463452 |     34463452 |     34463452 |     68298722 |     68298722 |     68298722 |     68298722 |    135788952 |    135788952 |    135788952 |    135788952 |
dtlb.misses                                     15 |           15 |           15 |           15 |           23 |           23 |           23 |           23 |           39 |           39 |           39 |           39 |           71 |           71 |           71 |           71 |          147 |          147 |          147 |          147 |        10280 |        10280 |        10280 |        10280 |       526742 |       526742 |       526742 |       526742 |      1358399 |      1358399 |      1358399 |      1358399 |      3302509 |      3302509 |      3302509 |      3302509 |      7222119 |      7222119 |      7222119 |      7222119 |     15241649 |     15241649 |     15241649 |     15241649 |
dtlb.replacements                                0 |            0 |            0 |            0 |            0 |            0 |            0 |            0 |            0 |            0 |            0 |            0 |            0 |            0 |            0 |            0 |           19 |           19 |           19 |           19 |        10152 |        10152 |        10152 |        10152 |       526614 |       526614 |       526614 |       526614 |      1358271 |      1358271 |      1358271 |      1358271 |      3302381 |      3302381 |      3302381 |      3302381 |      7221991 |      7221991 |      7221991 |      7221991 |     15241521 |     15241521 |     15241521 |     15241521 |
dtlb.writebacks                                  0 |            0 |            0 |            0 |            0 |            0 |            0 |            0 |            0 |            0 |            0 |            0 |            0 |            0 |            0 |            0 |           15 |           15 |           15 |           15 |         9624 |         9624 |         9624 |         9624 |       525334 |       525334 |       525334 |       525334 |      1355726 |      1355726 |      1355726 |      1355726 |      3297330 |      3297330 |      3297330 |      3297330 |      7211840 |      7211840 |      7211840 |      7211840 |     15221142 |     15221142 |     15221142 |     15221142 |
dtlb.invalidations                               0 |            0 |            0 |            0 |            0 |            0 |            0 |            0 |            0 |            0 |            0 |            0 |            0 |            0 |            0 |            0 |            0 |            0 |            0 |            0 |            0 |            0 |            0 |            0 |            0 |            0 |            0 |            0 |            0 |            0 |            0 |            0 |            0 |            0 |            0 |            0 |            0 |            0 |            0 |            0 |            0 |            0 |            0 |            0 |
dtlb.miss_rate                              0.0001 |       0.0001 |       0.0001 |       0.0001 |       0.0001 |       0.0001 |       0.0001 |       0.0001 |       0.0001 |       0.0001 |       0.0001 |       0.0001 |       0.0001 |       0.0001 |       0.0001 |       0.0001 |       0.0001 |       0.0001 |       0.0001 |       0.0001 |       0.0022 |       0.0022 |       0.0022 |       0.0022 |       0.0558 |       0.0558 |       0.0558 |       0.0558 |       0.0719 |       0.0719 |       0.0719 |       0.0719 |       0.0874 |       0.0874 |       0.0874 |       0.0874 |       0.0956 |       0.0956 |       0.0956 |       0.0956 |       0.1009 |       0.1009 |       0.1009 |       0.1009 |
dtlb.repl_rate                              0.0000 |       0.0000 |       0.0000 |       0.0000 |       0.0000 |       0.0000 |       0.0000 |       0.0000 |       0.0000 |       0.0000 |       0.0000 |       0.0000 |       0.0000 |       0.0000 |       0.0000 |       0.0000 |       0.0000 |       0.0000 |       0.0000 |       0.0000 |       0.0021 |       0.0021 |       0.0021 |       0.0021 |       0.0558 |       0.0558 |       0.0558 |       0.0558 |       0.0719 |       0.0719 |       0.0719 |       0.0719 |       0.0874 |       0.0874 |       0.0874 |       0.0874 |       0.0956 |       0.0956 |       0.0956 |       0.0956 |       0.1009 |       0.1009 |       0.1009 |       0.1009 |
dtlb.wb_rate                                0.0000 |       0.0000 |       0.0000 |       0.0000 |       0.0000 |       0.0000 |       0.0000 |       0.0000 |       0.0000 |       0.0000 |       0.0000 |       0.0000 |       0.0000 |       0.0000 |       0.0000 |       0.0000 |       0.0000 |       0.0000 |       0.0000 |       0.0000 |       0.0020 |       0.0020 |       0.0020 |       0.0020 |       0.0556 |       0.0556 |       0.0556 |       0.0556 |       0.0718 |       0.0718 |       0.0718 |       0.0718 |       0.0873 |       0.0873 |       0.0873 |       0.0873 |       0.0955 |       0.0955 |       0.0955 |       0.0955 |       0.1008 |       0.1008 |       0.1008 |       0.1008 |
dtlb.inv_rate                               0.0000 |       0.0000 |       0.0000 |       0.0000 |       0.0000 |       0.0000 |       0.0000 |       0.0000 |       0.0000 |       0.0000 |       0.0000 |       0.0000 |       0.0000 |       0.0000 |       0.0000 |       0.0000 |       0.0000 |       0.0000 |       0.0000 |       0.0000 |       0.0000 |       0.0000 |       0.0000 |       0.0000 |       0.0000 |       0.0000 |       0.0000 |       0.0000 |       0.0000 |       0.0000 |       0.0000 |       0.0000 |       0.0000 |       0.0000 |       0.0000 |       0.0000 |       0.0000 |       0.0000 |       0.0000 |       0.0000 |       0.0000 |       0.0000 |       0.0000 |       0.0000 |
ld_text_base                            0x00400000 |   0x00400000 |   0x00400000 |   0x00400000 |   0x00400000 |   0x00400000 |   0x00400000 |   0x00400000 |   0x00400000 |   0x00400000 |   0x00400000 |   0x00400000 |   0x00400000 |   0x00400000 |   0x00400000 |   0x00400000 |   0x00400000 |   0x00400000 |   0x00400000 |   0x00400000 |   0x00400000 |   0x00400000 |   0x00400000 |   0x00400000 |   0x00400000 |   0x00400000 |   0x00400000 |   0x00400000 |   0x00400000 |   0x00400000 |   0x00400000 |   0x00400000 |   0x00400000 |   0x00400000 |   0x00400000 |   0x00400000 |   0x00400000 |   0x00400000 |   0x00400000 |   0x00400000 |   0x00400000 |   0x00400000 |   0x00400000 |   0x00400000 |
ld_text_size                                 73856 |        73856 |        73856 |        73856 |        73888 |        73888 |        73888 |        73888 |        73904 |        73904 |        73904 |        73904 |        73920 |        73920 |        73920 |        73920 |        73920 |        73920 |        73920 |        73920 |        73920 |        73920 |        73920 |        73920 |        73920 |        73920 |        73920 |        73920 |        73920 |        73920 |        73920 |        73920 |        73920 |        73920 |        73920 |        73920 |        73920 |        73920 |        73920 |        73920 |        73920 |        73920 |        73920 |        73920 |
ld_data_base                            0x10000000 |   0x10000000 |   0x10000000 |   0x10000000 |   0x10000000 |   0x10000000 |   0x10000000 |   0x10000000 |   0x10000000 |   0x10000000 |   0x10000000 |   0x10000000 |   0x10000000 |   0x10000000 |   0x10000000 |   0x10000000 |   0x10000000 |   0x10000000 |   0x10000000 |   0x10000000 |   0x10000000 |   0x10000000 |   0x10000000 |   0x10000000 |   0x10000000 |   0x10000000 |   0x10000000 |   0x10000000 |   0x10000000 |   0x10000000 |   0x10000000 |   0x10000000 |   0x10000000 |   0x10000000 |   0x10000000 |   0x10000000 |   0x10000000 |   0x10000000 |   0x10000000 |   0x10000000 |   0x10000000 |   0x10000000 |   0x10000000 |   0x10000000 |
ld_data_size                                  8192 |         8192 |         8192 |         8192 |         8192 |         8192 |         8192 |         8192 |         8192 |         8192 |         8192 |         8192 |         8192 |         8192 |         8192 |         8192 |         8192 |         8192 |         8192 |         8192 |         8192 |         8192 |         8192 |         8192 |         8192 |         8192 |         8192 |         8192 |         8192 |         8192 |         8192 |         8192 |         8192 |         8192 |         8192 |         8192 |         8192 |         8192 |         8192 |         8192 |         8192 |         8192 |         8192 |         8192 |
ld_stack_base                           0x7fffc000 |   0x7fffc000 |   0x7fffc000 |   0x7fffc000 |   0x7fffc000 |   0x7fffc000 |   0x7fffc000 |   0x7fffc000 |   0x7fffc000 |   0x7fffc000 |   0x7fffc000 |   0x7fffc000 |   0x7fffc000 |   0x7fffc000 |   0x7fffc000 |   0x7fffc000 |   0x7fffc000 |   0x7fffc000 |   0x7fffc000 |   0x7fffc000 |   0x7fffc000 |   0x7fffc000 |   0x7fffc000 |   0x7fffc000 |   0x7fffc000 |   0x7fffc000 |   0x7fffc000 |   0x7fffc000 |   0x7fffc000 |   0x7fffc000 |   0x7fffc000 |   0x7fffc000 |   0x7fffc000 |   0x7fffc000 |   0x7fffc000 |   0x7fffc000 |   0x7fffc000 |   0x7fffc000 |   0x7fffc000 |   0x7fffc000 |   0x7fffc000 |   0x7fffc000 |   0x7fffc000 |   0x7fffc000 |
ld_stack_size                                16384 |        16384 |        16384 |        16384 |        16384 |        16384 |        16384 |        16384 |        16384 |        16384 |        16384 |        16384 |        16384 |        16384 |        16384 |        16384 |        16384 |        16384 |        16384 |        16384 |        16384 |        16384 |        16384 |        16384 |        16384 |        16384 |        16384 |        16384 |        16384 |        16384 |        16384 |        16384 |        16384 |        16384 |        16384 |        16384 |        16384 |        16384 |        16384 |        16384 |        16384 |        16384 |        16384 |        16384 |
ld_prog_entry                           0x00400140 |   0x00400140 |   0x00400140 |   0x00400140 |   0x00400140 |   0x00400140 |   0x00400140 |   0x00400140 |   0x00400140 |   0x00400140 |   0x00400140 |   0x00400140 |   0x00400140 |   0x00400140 |   0x00400140 |   0x00400140 |   0x00400140 |   0x00400140 |   0x00400140 |   0x00400140 |   0x00400140 |   0x00400140 |   0x00400140 |   0x00400140 |   0x00400140 |   0x00400140 |   0x00400140 |   0x00400140 |   0x00400140 |   0x00400140 |   0x00400140 |   0x00400140 |   0x00400140 |   0x00400140 |   0x00400140 |   0x00400140 |   0x00400140 |   0x00400140 |   0x00400140 |   0x00400140 |   0x00400140 |   0x00400140 |   0x00400140 |   0x00400140 |
ld_environ_base                         0x7fff8000 |   0x7fff8000 |   0x7fff8000 |   0x7fff8000 |   0x7fff8000 |   0x7fff8000 |   0x7fff8000 |   0x7fff8000 |   0x7fff8000 |   0x7fff8000 |   0x7fff8000 |   0x7fff8000 |   0x7fff8000 |   0x7fff8000 |   0x7fff8000 |   0x7fff8000 |   0x7fff8000 |   0x7fff8000 |   0x7fff8000 |   0x7fff8000 |   0x7fff8000 |   0x7fff8000 |   0x7fff8000 |   0x7fff8000 |   0x7fff8000 |   0x7fff8000 |   0x7fff8000 |   0x7fff8000 |   0x7fff8000 |   0x7fff8000 |   0x7fff8000 |   0x7fff8000 |   0x7fff8000 |   0x7fff8000 |   0x7fff8000 |   0x7fff8000 |   0x7fff8000 |   0x7fff8000 |   0x7fff8000 |   0x7fff8000 |   0x7fff8000 |   0x7fff8000 |   0x7fff8000 |   0x7fff8000 |
ld_target_big_endian                             0 |            0 |            0 |            0 |            0 |            0 |            0 |            0 |            0 |            0 |            0 |            0 |            0 |            0 |            0 |            0 |            0 |            0 |            0 |            0 |            0 |            0 |            0 |            0 |            0 |            0 |            0 |            0 |            0 |            0 |            0 |            0 |            0 |            0 |            0 |            0 |            0 |            0 |            0 |            0 |            0 |            0 |            0 |            0 |
mem.page_count                                  34 |           34 |           34 |           34 |           42 |           42 |           42 |           42 |           58 |           58 |           58 |           58 |           90 |           90 |           90 |           90 |          154 |          154 |          154 |          154 |          282 |          282 |          282 |          282 |          538 |          538 |          538 |          538 |         1050 |         1050 |         1050 |         1050 |         2080 |         2080 |         2080 |         2080 |         4134 |         4134 |         4134 |         4134 |         8242 |         8242 |         8242 |         8242 |
mem.page_mem                                  136k |         136k |         136k |         136k |         168k |         168k |         168k |         168k |         232k |         232k |         232k |         232k |         360k |         360k |         360k |         360k |         616k |         616k |         616k |         616k |        1128k |        1128k |        1128k |        1128k |        2152k |        2152k |        2152k |        2152k |        4200k |        4200k |        4200k |        4200k |        8320k |        8320k |        8320k |        8320k |       16536k |       16536k |       16536k |       16536k |       32968k |       32968k |       32968k |       32968k |
mem.ptab_misses                                 34 |           34 |           34 |           34 |           42 |           42 |           42 |           42 |           58 |           58 |           58 |           58 |           90 |           90 |           90 |           90 |          154 |          154 |          154 |          154 |          282 |          282 |          282 |          282 |          538 |          538 |          538 |          538 |         1050 |         1050 |         1050 |         1050 |        18467 |        18467 |        18467 |        18467 |        18477 |        18477 |        18477 |        18477 |        22585 |        22585 |        22585 |        22585 |
mem.ptab_accesses                          2283040 |      2283040 |      2283040 |      2283040 |      4041072 |      4041072 |      4041072 |      4041072 |      7555544 |      7555544 |      7555544 |      7555544 |     14584380 |     14584380 |     14584380 |     14584380 |     28641852 |     28641852 |     28641852 |     28641852 |     56756800 |     56756800 |     56756800 |     56756800 |    112986688 |    112986688 |    112986688 |    112986688 |    225446464 |    225446464 |    225446464 |    225446464 |    450434444 |    450434444 |    450434444 |    450434444 |    900322732 |    900322732 |    900322732 |    900322732 |   1800099276 |   1800099276 |   1800099276 |   1800099276 |
mem.ptab_miss_rate                          0.0000 |       0.0000 |       0.0000 |       0.0000 |       0.0000 |       0.0000 |       0.0000 |       0.0000 |       0.0000 |       0.0000 |       0.0000 |       0.0000 |       0.0000 |       0.0000 |       0.0000 |       0.0000 |       0.0000 |       0.0000 |       0.0000 |       0.0000 |       0.0000 |       0.0000 |       0.0000 |       0.0000 |       0.0000 |       0.0000 |       0.0000 |       0.0000 |       0.0000 |       0.0000 |       0.0000 |       0.0000 |       0.0000 |       0.0000 |       0.0000 |       0.0000 |       0.0000 |       0.0000 |       0.0000 |       0.0000 |       0.0000 |       0.0000 |       0.0000 |       0.0000 |
-------------------------------------------------------------------------------------------------
sim-bpred                                     4096 |         4096 |         4096 |         4096 |         4096 |         4096 |         4096 |         8192 |         8192 |         8192 |         8192 |         8192 |         8192 |         8192 |        16384 |        16384 |        16384 |        16384 |        16384 |        16384 |        16384 |        32768 |        32768 |        32768 |        32768 |        32768 |        32768 |        32768 |        65536 |        65536 |        65536 |        65536 |        65536 |        65536 |        65536 |       131072 |       131072 |       131072 |       131072 |       131072 |       131072 |       131072 |       262144 |       262144 |       262144 |       262144 |       262144 |       262144 |       262144 |       524288 |       524288 |       524288 |       524288 |       524288 |       524288 |       524288 |      1048576 |      1048576 |      1048576 |      1048576 |      1048576 |      1048576 |      1048576 |      2097152 |      2097152 |      2097152 |      2097152 |      2097152 |      2097152 |      2097152 |      4194304 |      4194304 |      4194304 |      4194304 |      4194304 |      4194304 |      4194304 |
-bpred bimod -bpred:bimod 512
-bpred bimod -bpred:bimod 1024
-bpred bimod -bpred:bimod 2048
-bpred 2lev -bpred:2lev 1 512 10 1
-bpred 2lev -bpred:2lev 1 1024 10 1
-bpred 2lev -bpred:2lev 1 2048 10 1
-bpred 2lev -bpred:2lev 1 4096 10 1
-------------------------------------------------------------------------------------------------
sim_num_insn                                378641 |       378641 |       378641 |       378641 |       378641 |       378641 |       378641 |       744351 |       744351 |       744351 |       744351 |       744351 |       744351 |       744351 |      1475489 |      1475489 |      1475489 |      1475489 |      1475489 |      1475489 |      1475489 |      2937762 |      2937762 |      2937762 |      2937762 |      2937762 |      2937762 |      2937762 |      5862306 |      5862306 |      5862306 |      5862306 |      5862306 |      5862306 |      5862306 |     11711395 |     11711395 |     11711395 |     11711395 |     11711395 |     11711395 |     11711395 |     23409571 |     23409571 |     23409571 |     23409571 |     23409571 |     23409571 |     23409571 |     46805923 |     46805923 |     46805923 |     46805923 |     46805923 |     46805923 |     46805923 |     93611103 |     93611103 |     93611103 |     93611103 |     93611103 |     93611103 |     93611103 |    187205735 |    187205735 |    187205735 |    187205735 |    187205735 |    187205735 |    187205735 |    374394991 |    374394991 |    374394991 |    374394991 |    374394991 |    374394991 |    374394991 |
sim_num_refs                                138909 |       138909 |       138909 |       138909 |       138909 |       138909 |       138909 |       270025 |       270025 |       270025 |       270025 |       270025 |       270025 |       270025 |       532169 |       532169 |       532169 |       532169 |       532169 |       532169 |       532169 |      1056457 |      1056457 |      1056457 |      1056457 |      1056457 |      1056457 |      1056457 |      2105033 |      2105033 |      2105033 |      2105033 |      2105033 |      2105033 |      2105033 |      4202185 |      4202185 |      4202185 |      4202185 |      4202185 |      4202185 |      4202185 |      8396489 |      8396489 |      8396489 |      8396489 |      8396489 |      8396489 |      8396489 |     16785097 |     16785097 |     16785097 |     16785097 |     16785097 |     16785097 |     16785097 |     33571575 |     33571575 |     33571575 |     33571575 |     33571575 |     33571575 |     33571575 |     67132151 |     67132151 |     67132151 |     67132151 |     67132151 |     67132151 |     67132151 |    134253303 |    134253303 |    134253303 |    134253303 |    134253303 |    134253303 |    134253303 |
sim_elapsed_time                                 1 |            1 |            1 |            1 |            1 |            1 |            1 |            1 |            1 |            1 |            1 |            1 |            1 |            1 |            1 |            1 |            1 |            1 |            1 |            1 |            1 |            1 |            1 |            1 |            1 |            1 |            1 |            1 |            1 |            1 |            1 |            1 |            1 |            1 |            1 |            1 |            1 |            1 |            1 |            1 |            1 |            1 |            2 |            2 |            2 |            2 |            2 |            3 |            2 |            5 |            4 |            5 |            5 |            4 |            5 |            4 |            9 |            9 |            9 |            9 |           10 |            9 |            9 |           18 |           18 |           18 |           18 |           18 |           18 |           19 |           37 |           36 |           37 |           37 |           36 |           37 |           37 |
sim_inst_rate                          378641.0000 |  378641.0000 |  378641.0000 |  378641.0000 |  378641.0000 |  378641.0000 |  378641.0000 |  744351.0000 |  744351.0000 |  744351.0000 |  744351.0000 |  744351.0000 |  744351.0000 |  744351.0000 | 1475489.0000 | 1475489.0000 | 1475489.0000 | 1475489.0000 | 1475489.0000 | 1475489.0000 | 1475489.0000 | 2937762.0000 | 2937762.0000 | 2937762.0000 | 2937762.0000 | 2937762.0000 | 2937762.0000 | 2937762.0000 | 5862306.0000 | 5862306.0000 | 5862306.0000 | 5862306.0000 | 5862306.0000 | 5862306.0000 | 5862306.0000 |11711395.0000 |11711395.0000 |11711395.0000 |11711395.0000 |11711395.0000 |11711395.0000 |11711395.0000 |11704785.5000 |11704785.5000 |11704785.5000 |11704785.5000 |11704785.5000 | 7803190.3333 |11704785.5000 | 9361184.6000 |11701480.7500 | 9361184.6000 | 9361184.6000 |11701480.7500 | 9361184.6000 |11701480.7500 |10401233.6667 |10401233.6667 |10401233.6667 |10401233.6667 | 9361110.3000 |10401233.6667 |10401233.6667 |10400318.6111 |10400318.6111 |10400318.6111 |10400318.6111 |10400318.6111 |10400318.6111 | 9852933.4211 |10118783.5405 |10399860.8611 |10118783.5405 |10118783.5405 |10399860.8611 |10118783.5405 |10118783.5405 |
sim_num_branches                              9239 |         9239 |         9239 |         9239 |         9239 |         9239 |         9239 |        17471 |        17471 |        17471 |        17471 |        17471 |        17471 |        17471 |        33855 |        33855 |        33855 |        33855 |        33855 |        33855 |        33855 |        66623 |        66623 |        66623 |        66623 |        66623 |        66623 |        66623 |       132159 |       132159 |       132159 |       132159 |       132159 |       132159 |       132159 |       263231 |       263231 |       263231 |       263231 |       263231 |       263231 |       263231 |       525375 |       525375 |       525375 |       525375 |       525375 |       525375 |       525375 |      1049663 |      1049663 |      1049663 |      1049663 |      1049663 |      1049663 |      1049663 |      2099032 |      2099032 |      2099032 |      2099032 |      2099032 |      2099032 |      2099032 |      4196955 |      4196955 |      4196955 |      4196955 |      4196955 |      4196955 |      4196955 |      8392798 |      8392798 |      8392798 |      8392798 |      8392798 |      8392798 |      8392798 |
sim_IPB                                    40.9829 |      40.9829 |      40.9829 |      40.9829 |      40.9829 |      40.9829 |      40.9829 |      42.6049 |      42.6049 |      42.6049 |      42.6049 |      42.6049 |      42.6049 |      42.6049 |      43.5826 |      43.5826 |      43.5826 |      43.5826 |      43.5826 |      43.5826 |      43.5826 |      44.0953 |      44.0953 |      44.0953 |      44.0953 |      44.0953 |      44.0953 |      44.0953 |      44.3580 |      44.3580 |      44.3580 |      44.3580 |      44.3580 |      44.3580 |      44.3580 |      44.4909 |      44.4909 |      44.4909 |      44.4909 |      44.4909 |      44.4909 |      44.4909 |      44.5578 |      44.5578 |      44.5578 |      44.5578 |      44.5578 |      44.5578 |      44.5578 |      44.5914 |      44.5914 |      44.5914 |      44.5914 |      44.5914 |      44.5914 |      44.5914 |      44.5973 |      44.5973 |      44.5973 |      44.5973 |      44.5973 |      44.5973 |      44.5973 |      44.6051 |      44.6051 |      44.6051 |      44.6051 |      44.6051 |      44.6051 |      44.6051 |      44.6091 |      44.6091 |      44.6091 |      44.6091 |      44.6091 |      44.6091 |      44.6091 |
bpred_bimod.lookups                           9239 |         9239 |         9239 |xxxxxxxxxxxxx |xxxxxxxxxxxxx |xxxxxxxxxxxxx |xxxxxxxxxxxxx |        17471 |        17471 |        17471 |xxxxxxxxxxxxx |xxxxxxxxxxxxx |xxxxxxxxxxxxx |xxxxxxxxxxxxx |        33855 |        33855 |        33855 |xxxxxxxxxxxxx |xxxxxxxxxxxxx |xxxxxxxxxxxxx |xxxxxxxxxxxxx |        66623 |        66623 |        66623 |xxxxxxxxxxxxx |xxxxxxxxxxxxx |xxxxxxxxxxxxx |xxxxxxxxxxxxx |       132159 |       132159 |       132159 |xxxxxxxxxxxxx |xxxxxxxxxxxxx |xxxxxxxxxxxxx |xxxxxxxxxxxxx |       263231 |       263231 |       263231 |xxxxxxxxxxxxx |xxxxxxxxxxxxx |xxxxxxxxxxxxx |xxxxxxxxxxxxx |       525375 |       525375 |       525375 |xxxxxxxxxxxxx |xxxxxxxxxxxxx |xxxxxxxxxxxxx |xxxxxxxxxxxxx |      1049663 |      1049663 |      1049663 |xxxxxxxxxxxxx |xxxxxxxxxxxxx |xxxxxxxxxxxxx |xxxxxxxxxxxxx |      2099032 |      2099032 |      2099032 |xxxxxxxxxxxxx |xxxxxxxxxxxxx |xxxxxxxxxxxxx |xxxxxxxxxxxxx |      4196955 |      4196955 |      4196955 |xxxxxxxxxxxxx |xxxxxxxxxxxxx |xxxxxxxxxxxxx |xxxxxxxxxxxxx |      8392798 |      8392798 |      8392798 |
bpred_bimod.updates                           9239 |         9239 |         9239 |xxxxxxxxxxxxx |xxxxxxxxxxxxx |xxxxxxxxxxxxx |xxxxxxxxxxxxx |        17471 |        17471 |        17471 |xxxxxxxxxxxxx |xxxxxxxxxxxxx |xxxxxxxxxxxxx |xxxxxxxxxxxxx |        33855 |        33855 |        33855 |xxxxxxxxxxxxx |xxxxxxxxxxxxx |xxxxxxxxxxxxx |xxxxxxxxxxxxx |        66623 |        66623 |        66623 |xxxxxxxxxxxxx |xxxxxxxxxxxxx |xxxxxxxxxxxxx |xxxxxxxxxxxxx |       132159 |       132159 |       132159 |xxxxxxxxxxxxx |xxxxxxxxxxxxx |xxxxxxxxxxxxx |xxxxxxxxxxxxx |       263231 |       263231 |       263231 |xxxxxxxxxxxxx |xxxxxxxxxxxxx |xxxxxxxxxxxxx |xxxxxxxxxxxxx |       525375 |       525375 |       525375 |xxxxxxxxxxxxx |xxxxxxxxxxxxx |xxxxxxxxxxxxx |xxxxxxxxxxxxx |      1049663 |      1049663 |      1049663 |xxxxxxxxxxxxx |xxxxxxxxxxxxx |xxxxxxxxxxxxx |xxxxxxxxxxxxx |      2099032 |      2099032 |      2099032 |xxxxxxxxxxxxx |xxxxxxxxxxxxx |xxxxxxxxxxxxx |xxxxxxxxxxxxx |      4196955 |      4196955 |      4196955 |xxxxxxxxxxxxx |xxxxxxxxxxxxx |xxxxxxxxxxxxx |xxxxxxxxxxxxx |      8392798 |      8392798 |      8392798 |
bpred_bimod.addr_hits                         9037 |         9039 |         9040 |xxxxxxxxxxxxx |xxxxxxxxxxxxx |xxxxxxxxxxxxx |xxxxxxxxxxxxx |        17262 |        17264 |        17265 |xxxxxxxxxxxxx |xxxxxxxxxxxxx |xxxxxxxxxxxxx |xxxxxxxxxxxxx |        33647 |        33649 |        33650 |xxxxxxxxxxxxx |xxxxxxxxxxxxx |xxxxxxxxxxxxx |xxxxxxxxxxxxx |        66415 |        66417 |        66418 |xxxxxxxxxxxxx |xxxxxxxxxxxxx |xxxxxxxxxxxxx |xxxxxxxxxxxxx |       131951 |       131953 |       131954 |xxxxxxxxxxxxx |xxxxxxxxxxxxx |xxxxxxxxxxxxx |xxxxxxxxxxxxx |       263023 |       263025 |       263026 |xxxxxxxxxxxxx |xxxxxxxxxxxxx |xxxxxxxxxxxxx |xxxxxxxxxxxxx |       525167 |       525169 |       525170 |xxxxxxxxxxxxx |xxxxxxxxxxxxx |xxxxxxxxxxxxx |xxxxxxxxxxxxx |      1049455 |      1049457 |      1049458 |xxxxxxxxxxxxx |xxxxxxxxxxxxx |xxxxxxxxxxxxx |xxxxxxxxxxxxx |      2098801 |      2098802 |      2098802 |xxxxxxxxxxxxx |xxxxxxxxxxxxx |xxxxxxxxxxxxx |xxxxxxxxxxxxx |      4196724 |      4196725 |      4196725 |xxxxxxxxxxxxx |xxxxxxxxxxxxx |xxxxxxxxxxxxx |xxxxxxxxxxxxx |      8392567 |      8392568 |      8392568 |
bpred_bimod.dir_hits                          9136 |         9140 |         9141 |xxxxxxxxxxxxx |xxxxxxxxxxxxx |xxxxxxxxxxxxx |xxxxxxxxxxxxx |        17366 |        17369 |        17370 |xxxxxxxxxxxxx |xxxxxxxxxxxxx |xxxxxxxxxxxxx |xxxxxxxxxxxxx |        33751 |        33754 |        33755 |xxxxxxxxxxxxx |xxxxxxxxxxxxx |xxxxxxxxxxxxx |xxxxxxxxxxxxx |        66518 |        66521 |        66522 |xxxxxxxxxxxxx |xxxxxxxxxxxxx |xxxxxxxxxxxxx |xxxxxxxxxxxxx |       132054 |       132057 |       132058 |xxxxxxxxxxxxx |xxxxxxxxxxxxx |xxxxxxxxxxxxx |xxxxxxxxxxxxx |       263127 |       263130 |       263131 |xxxxxxxxxxxxx |xxxxxxxxxxxxx |xxxxxxxxxxxxx |xxxxxxxxxxxxx |       525271 |       525274 |       525275 |xxxxxxxxxxxxx |xxxxxxxxxxxxx |xxxxxxxxxxxxx |xxxxxxxxxxxxx |      1049559 |      1049562 |      1049563 |xxxxxxxxxxxxx |xxxxxxxxxxxxx |xxxxxxxxxxxxx |xxxxxxxxxxxxx |      2098916 |      2098917 |      2098918 |xxxxxxxxxxxxx |xxxxxxxxxxxxx |xxxxxxxxxxxxx |xxxxxxxxxxxxx |      4196839 |      4196840 |      4196841 |xxxxxxxxxxxxx |xxxxxxxxxxxxx |xxxxxxxxxxxxx |xxxxxxxxxxxxx |      8392682 |      8392683 |      8392684 |
bpred_bimod.misses                             103 |           99 |           98 |xxxxxxxxxxxxx |xxxxxxxxxxxxx |xxxxxxxxxxxxx |xxxxxxxxxxxxx |          105 |          102 |          101 |xxxxxxxxxxxxx |xxxxxxxxxxxxx |xxxxxxxxxxxxx |xxxxxxxxxxxxx |          104 |          101 |          100 |xxxxxxxxxxxxx |xxxxxxxxxxxxx |xxxxxxxxxxxxx |xxxxxxxxxxxxx |          105 |          102 |          101 |xxxxxxxxxxxxx |xxxxxxxxxxxxx |xxxxxxxxxxxxx |xxxxxxxxxxxxx |          105 |          102 |          101 |xxxxxxxxxxxxx |xxxxxxxxxxxxx |xxxxxxxxxxxxx |xxxxxxxxxxxxx |          104 |          101 |          100 |xxxxxxxxxxxxx |xxxxxxxxxxxxx |xxxxxxxxxxxxx |xxxxxxxxxxxxx |          104 |          101 |          100 |xxxxxxxxxxxxx |xxxxxxxxxxxxx |xxxxxxxxxxxxx |xxxxxxxxxxxxx |          104 |          101 |          100 |xxxxxxxxxxxxx |xxxxxxxxxxxxx |xxxxxxxxxxxxx |xxxxxxxxxxxxx |          116 |          115 |          114 |xxxxxxxxxxxxx |xxxxxxxxxxxxx |xxxxxxxxxxxxx |xxxxxxxxxxxxx |          116 |          115 |          114 |xxxxxxxxxxxxx |xxxxxxxxxxxxx |xxxxxxxxxxxxx |xxxxxxxxxxxxx |          116 |          115 |          114 |
bpred_bimod.jr_hits                             61 |           61 |           61 |xxxxxxxxxxxxx |xxxxxxxxxxxxx |xxxxxxxxxxxxx |xxxxxxxxxxxxx |           69 |           69 |           69 |xxxxxxxxxxxxx |xxxxxxxxxxxxx |xxxxxxxxxxxxx |xxxxxxxxxxxxx |           69 |           69 |           69 |xxxxxxxxxxxxx |xxxxxxxxxxxxx |xxxxxxxxxxxxx |xxxxxxxxxxxxx |           69 |           69 |           69 |xxxxxxxxxxxxx |xxxxxxxxxxxxx |xxxxxxxxxxxxx |xxxxxxxxxxxxx |           69 |           69 |           69 |xxxxxxxxxxxxx |xxxxxxxxxxxxx |xxxxxxxxxxxxx |xxxxxxxxxxxxx |           69 |           69 |           69 |xxxxxxxxxxxxx |xxxxxxxxxxxxx |xxxxxxxxxxxxx |xxxxxxxxxxxxx |           69 |           69 |           69 |xxxxxxxxxxxxx |xxxxxxxxxxxxx |xxxxxxxxxxxxx |xxxxxxxxxxxxx |           69 |           69 |           69 |xxxxxxxxxxxxx |xxxxxxxxxxxxx |xxxxxxxxxxxxx |xxxxxxxxxxxxx |           72 |           72 |           72 |xxxxxxxxxxxxx |xxxxxxxxxxxxx |xxxxxxxxxxxxx |xxxxxxxxxxxxx |           72 |           72 |           72 |xxxxxxxxxxxxx |xxxxxxxxxxxxx |xxxxxxxxxxxxx |xxxxxxxxxxxxx |           72 |           72 |           72 |
bpred_bimod.jr_seen                             61 |           61 |           61 |xxxxxxxxxxxxx |xxxxxxxxxxxxx |xxxxxxxxxxxxx |xxxxxxxxxxxxx |           70 |           70 |           70 |xxxxxxxxxxxxx |xxxxxxxxxxxxx |xxxxxxxxxxxxx |xxxxxxxxxxxxx |           70 |           70 |           70 |xxxxxxxxxxxxx |xxxxxxxxxxxxx |xxxxxxxxxxxxx |xxxxxxxxxxxxx |           70 |           70 |           70 |xxxxxxxxxxxxx |xxxxxxxxxxxxx |xxxxxxxxxxxxx |xxxxxxxxxxxxx |           70 |           70 |           70 |xxxxxxxxxxxxx |xxxxxxxxxxxxx |xxxxxxxxxxxxx |xxxxxxxxxxxxx |           70 |           70 |           70 |xxxxxxxxxxxxx |xxxxxxxxxxxxx |xxxxxxxxxxxxx |xxxxxxxxxxxxx |           70 |           70 |           70 |xxxxxxxxxxxxx |xxxxxxxxxxxxx |xxxxxxxxxxxxx |xxxxxxxxxxxxx |           70 |           70 |           70 |xxxxxxxxxxxxx |xxxxxxxxxxxxx |xxxxxxxxxxxxx |xxxxxxxxxxxxx |           73 |           73 |           73 |xxxxxxxxxxxxx |xxxxxxxxxxxxx |xxxxxxxxxxxxx |xxxxxxxxxxxxx |           73 |           73 |           73 |xxxxxxxxxxxxx |xxxxxxxxxxxxx |xxxxxxxxxxxxx |xxxxxxxxxxxxx |           73 |           73 |           73 |
bpred_bimod.jr_non_ras_hits.PP                   0 |            0 |            0 |xxxxxxxxxxxxx |xxxxxxxxxxxxx |xxxxxxxxxxxxx |xxxxxxxxxxxxx |            0 |            0 |            0 |xxxxxxxxxxxxx |xxxxxxxxxxxxx |xxxxxxxxxxxxx |xxxxxxxxxxxxx |            0 |            0 |            0 |xxxxxxxxxxxxx |xxxxxxxxxxxxx |xxxxxxxxxxxxx |xxxxxxxxxxxxx |            0 |            0 |            0 |xxxxxxxxxxxxx |xxxxxxxxxxxxx |xxxxxxxxxxxxx |xxxxxxxxxxxxx |            0 |            0 |            0 |xxxxxxxxxxxxx |xxxxxxxxxxxxx |xxxxxxxxxxxxx |xxxxxxxxxxxxx |            0 |            0 |            0 |xxxxxxxxxxxxx |xxxxxxxxxxxxx |xxxxxxxxxxxxx |xxxxxxxxxxxxx |            0 |            0 |            0 |xxxxxxxxxxxxx |xxxxxxxxxxxxx |xxxxxxxxxxxxx |xxxxxxxxxxxxx |            0 |            0 |            0 |xxxxxxxxxxxxx |xxxxxxxxxxxxx |xxxxxxxxxxxxx |xxxxxxxxxxxxx |            0 |            0 |            0 |xxxxxxxxxxxxx |xxxxxxxxxxxxx |xxxxxxxxxxxxx |xxxxxxxxxxxxx |            0 |            0 |            0 |xxxxxxxxxxxxx |xxxxxxxxxxxxx |xxxxxxxxxxxxx |xxxxxxxxxxxxx |            0 |            0 |            0 |
bpred_bimod.jr_non_ras_seen.PP                   0 |            0 |            0 |xxxxxxxxxxxxx |xxxxxxxxxxxxx |xxxxxxxxxxxxx |xxxxxxxxxxxxx |            0 |            0 |            0 |xxxxxxxxxxxxx |xxxxxxxxxxxxx |xxxxxxxxxxxxx |xxxxxxxxxxxxx |            0 |            0 |            0 |xxxxxxxxxxxxx |xxxxxxxxxxxxx |xxxxxxxxxxxxx |xxxxxxxxxxxxx |            0 |            0 |            0 |xxxxxxxxxxxxx |xxxxxxxxxxxxx |xxxxxxxxxxxxx |xxxxxxxxxxxxx |            0 |            0 |            0 |xxxxxxxxxxxxx |xxxxxxxxxxxxx |xxxxxxxxxxxxx |xxxxxxxxxxxxx |            0 |            0 |            0 |xxxxxxxxxxxxx |xxxxxxxxxxxxx |xxxxxxxxxxxxx |xxxxxxxxxxxxx |            0 |            0 |            0 |xxxxxxxxxxxxx |xxxxxxxxxxxxx |xxxxxxxxxxxxx |xxxxxxxxxxxxx |            0 |            0 |            0 |xxxxxxxxxxxxx |xxxxxxxxxxxxx |xxxxxxxxxxxxx |xxxxxxxxxxxxx |            1 |            1 |            1 |xxxxxxxxxxxxx |xxxxxxxxxxxxx |xxxxxxxxxxxxx |xxxxxxxxxxxxx |            1 |            1 |            1 |xxxxxxxxxxxxx |xxxxxxxxxxxxx |xxxxxxxxxxxxx |xxxxxxxxxxxxx |            1 |            1 |            1 |
bpred_bimod.bpred_addr_rate                 0.9781 |       0.9784 |       0.9785 |xxxxxxxxxxxxx |xxxxxxxxxxxxx |xxxxxxxxxxxxx |xxxxxxxxxxxxx |       0.9880 |       0.9882 |       0.9882 |xxxxxxxxxxxxx |xxxxxxxxxxxxx |xxxxxxxxxxxxx |xxxxxxxxxxxxx |       0.9939 |       0.9939 |       0.9939 |xxxxxxxxxxxxx |xxxxxxxxxxxxx |xxxxxxxxxxxxx |xxxxxxxxxxxxx |       0.9969 |       0.9969 |       0.9969 |xxxxxxxxxxxxx |xxxxxxxxxxxxx |xxxxxxxxxxxxx |xxxxxxxxxxxxx |       0.9984 |       0.9984 |       0.9984 |xxxxxxxxxxxxx |xxxxxxxxxxxxx |xxxxxxxxxxxxx |xxxxxxxxxxxxx |       0.9992 |       0.9992 |       0.9992 |xxxxxxxxxxxxx |xxxxxxxxxxxxx |xxxxxxxxxxxxx |xxxxxxxxxxxxx |       0.9996 |       0.9996 |       0.9996 |xxxxxxxxxxxxx |xxxxxxxxxxxxx |xxxxxxxxxxxxx |xxxxxxxxxxxxx |       0.9998 |       0.9998 |       0.9998 |xxxxxxxxxxxxx |xxxxxxxxxxxxx |xxxxxxxxxxxxx |xxxxxxxxxxxxx |       0.9999 |       0.9999 |       0.9999 |xxxxxxxxxxxxx |xxxxxxxxxxxxx |xxxxxxxxxxxxx |xxxxxxxxxxxxx |       0.9999 |       0.9999 |       0.9999 |xxxxxxxxxxxxx |xxxxxxxxxxxxx |xxxxxxxxxxxxx |xxxxxxxxxxxxx |       1.0000 |       1.0000 |       1.0000 |
bpred_bimod.bpred_dir_rate                  0.9889 |       0.9893 |       0.9894 |xxxxxxxxxxxxx |xxxxxxxxxxxxx |xxxxxxxxxxxxx |xxxxxxxxxxxxx |       0.9940 |       0.9942 |       0.9942 |xxxxxxxxxxxxx |xxxxxxxxxxxxx |xxxxxxxxxxxxx |xxxxxxxxxxxxx |       0.9969 |       0.9970 |       0.9970 |xxxxxxxxxxxxx |xxxxxxxxxxxxx |xxxxxxxxxxxxx |xxxxxxxxxxxxx |       0.9984 |       0.9985 |       0.9985 |xxxxxxxxxxxxx |xxxxxxxxxxxxx |xxxxxxxxxxxxx |xxxxxxxxxxxxx |       0.9992 |       0.9992 |       0.9992 |xxxxxxxxxxxxx |xxxxxxxxxxxxx |xxxxxxxxxxxxx |xxxxxxxxxxxxx |       0.9996 |       0.9996 |       0.9996 |xxxxxxxxxxxxx |xxxxxxxxxxxxx |xxxxxxxxxxxxx |xxxxxxxxxxxxx |       0.9998 |       0.9998 |       0.9998 |xxxxxxxxxxxxx |xxxxxxxxxxxxx |xxxxxxxxxxxxx |xxxxxxxxxxxxx |       0.9999 |       0.9999 |       0.9999 |xxxxxxxxxxxxx |xxxxxxxxxxxxx |xxxxxxxxxxxxx |xxxxxxxxxxxxx |       0.9999 |       0.9999 |       0.9999 |xxxxxxxxxxxxx |xxxxxxxxxxxxx |xxxxxxxxxxxxx |xxxxxxxxxxxxx |       1.0000 |       1.0000 |       1.0000 |xxxxxxxxxxxxx |xxxxxxxxxxxxx |xxxxxxxxxxxxx |xxxxxxxxxxxxx |       1.0000 |       1.0000 |       1.0000 |
bpred_bimod.bpred_jr_rate                   1.0000 |       1.0000 |       1.0000 |xxxxxxxxxxxxx |xxxxxxxxxxxxx |xxxxxxxxxxxxx |xxxxxxxxxxxxx |       0.9857 |       0.9857 |       0.9857 |xxxxxxxxxxxxx |xxxxxxxxxxxxx |xxxxxxxxxxxxx |xxxxxxxxxxxxx |       0.9857 |       0.9857 |       0.9857 |xxxxxxxxxxxxx |xxxxxxxxxxxxx |xxxxxxxxxxxxx |xxxxxxxxxxxxx |       0.9857 |       0.9857 |       0.9857 |xxxxxxxxxxxxx |xxxxxxxxxxxxx |xxxxxxxxxxxxx |xxxxxxxxxxxxx |       0.9857 |       0.9857 |       0.9857 |xxxxxxxxxxxxx |xxxxxxxxxxxxx |xxxxxxxxxxxxx |xxxxxxxxxxxxx |       0.9857 |       0.9857 |       0.9857 |xxxxxxxxxxxxx |xxxxxxxxxxxxx |xxxxxxxxxxxxx |xxxxxxxxxxxxx |       0.9857 |       0.9857 |       0.9857 |xxxxxxxxxxxxx |xxxxxxxxxxxxx |xxxxxxxxxxxxx |xxxxxxxxxxxxx |       0.9857 |       0.9857 |       0.9857 |xxxxxxxxxxxxx |xxxxxxxxxxxxx |xxxxxxxxxxxxx |xxxxxxxxxxxxx |       0.9863 |       0.9863 |       0.9863 |xxxxxxxxxxxxx |xxxxxxxxxxxxx |xxxxxxxxxxxxx |xxxxxxxxxxxxx |       0.9863 |       0.9863 |       0.9863 |xxxxxxxxxxxxx |xxxxxxxxxxxxx |xxxxxxxxxxxxx |xxxxxxxxxxxxx |       0.9863 |       0.9863 |       0.9863 |
bpred_bimod.bpred_jr_non_ras_rate.PP       <error: |      <error: |      <error: |xxxxxxxxxxxxx |xxxxxxxxxxxxx |xxxxxxxxxxxxx |xxxxxxxxxxxxx |      <error: |      <error: |      <error: |xxxxxxxxxxxxx |xxxxxxxxxxxxx |xxxxxxxxxxxxx |xxxxxxxxxxxxx |      <error: |      <error: |      <error: |xxxxxxxxxxxxx |xxxxxxxxxxxxx |xxxxxxxxxxxxx |xxxxxxxxxxxxx |      <error: |      <error: |      <error: |xxxxxxxxxxxxx |xxxxxxxxxxxxx |xxxxxxxxxxxxx |xxxxxxxxxxxxx |      <error: |      <error: |      <error: |xxxxxxxxxxxxx |xxxxxxxxxxxxx |xxxxxxxxxxxxx |xxxxxxxxxxxxx |      <error: |      <error: |      <error: |xxxxxxxxxxxxx |xxxxxxxxxxxxx |xxxxxxxxxxxxx |xxxxxxxxxxxxx |      <error: |      <error: |      <error: |xxxxxxxxxxxxx |xxxxxxxxxxxxx |xxxxxxxxxxxxx |xxxxxxxxxxxxx |      <error: |      <error: |      <error: |xxxxxxxxxxxxx |xxxxxxxxxxxxx |xxxxxxxxxxxxx |xxxxxxxxxxxxx |       0.0000 |       0.0000 |       0.0000 |xxxxxxxxxxxxx |xxxxxxxxxxxxx |xxxxxxxxxxxxx |xxxxxxxxxxxxx |       0.0000 |       0.0000 |       0.0000 |xxxxxxxxxxxxx |xxxxxxxxxxxxx |xxxxxxxxxxxxx |xxxxxxxxxxxxx |       0.0000 |       0.0000 |       0.0000 |
bpred_bimod.retstack_pushes                     63 |           63 |           63 |xxxxxxxxxxxxx |xxxxxxxxxxxxx |xxxxxxxxxxxxx |xxxxxxxxxxxxx |           72 |           72 |           72 |xxxxxxxxxxxxx |xxxxxxxxxxxxx |xxxxxxxxxxxxx |xxxxxxxxxxxxx |           72 |           72 |           72 |xxxxxxxxxxxxx |xxxxxxxxxxxxx |xxxxxxxxxxxxx |xxxxxxxxxxxxx |           72 |           72 |           72 |xxxxxxxxxxxxx |xxxxxxxxxxxxx |xxxxxxxxxxxxx |xxxxxxxxxxxxx |           72 |           72 |           72 |xxxxxxxxxxxxx |xxxxxxxxxxxxx |xxxxxxxxxxxxx |xxxxxxxxxxxxx |           72 |           72 |           72 |xxxxxxxxxxxxx |xxxxxxxxxxxxx |xxxxxxxxxxxxx |xxxxxxxxxxxxx |           72 |           72 |           72 |xxxxxxxxxxxxx |xxxxxxxxxxxxx |xxxxxxxxxxxxx |xxxxxxxxxxxxx |           72 |           72 |           72 |xxxxxxxxxxxxx |xxxxxxxxxxxxx |xxxxxxxxxxxxx |xxxxxxxxxxxxx |           74 |           74 |           74 |xxxxxxxxxxxxx |xxxxxxxxxxxxx |xxxxxxxxxxxxx |xxxxxxxxxxxxx |           74 |           74 |           74 |xxxxxxxxxxxxx |xxxxxxxxxxxxx |xxxxxxxxxxxxx |xxxxxxxxxxxxx |           74 |           74 |           74 |
bpred_bimod.retstack_pops                       61 |           61 |           61 |xxxxxxxxxxxxx |xxxxxxxxxxxxx |xxxxxxxxxxxxx |xxxxxxxxxxxxx |           70 |           70 |           70 |xxxxxxxxxxxxx |xxxxxxxxxxxxx |xxxxxxxxxxxxx |xxxxxxxxxxxxx |           70 |           70 |           70 |xxxxxxxxxxxxx |xxxxxxxxxxxxx |xxxxxxxxxxxxx |xxxxxxxxxxxxx |           70 |           70 |           70 |xxxxxxxxxxxxx |xxxxxxxxxxxxx |xxxxxxxxxxxxx |xxxxxxxxxxxxx |           70 |           70 |           70 |xxxxxxxxxxxxx |xxxxxxxxxxxxx |xxxxxxxxxxxxx |xxxxxxxxxxxxx |           70 |           70 |           70 |xxxxxxxxxxxxx |xxxxxxxxxxxxx |xxxxxxxxxxxxx |xxxxxxxxxxxxx |           70 |           70 |           70 |xxxxxxxxxxxxx |xxxxxxxxxxxxx |xxxxxxxxxxxxx |xxxxxxxxxxxxx |           70 |           70 |           70 |xxxxxxxxxxxxx |xxxxxxxxxxxxx |xxxxxxxxxxxxx |xxxxxxxxxxxxx |           72 |           72 |           72 |xxxxxxxxxxxxx |xxxxxxxxxxxxx |xxxxxxxxxxxxx |xxxxxxxxxxxxx |           72 |           72 |           72 |xxxxxxxxxxxxx |xxxxxxxxxxxxx |xxxxxxxxxxxxx |xxxxxxxxxxxxx |           72 |           72 |           72 |
bpred_bimod.used_ras.PP                         61 |           61 |           61 |xxxxxxxxxxxxx |xxxxxxxxxxxxx |xxxxxxxxxxxxx |xxxxxxxxxxxxx |           70 |           70 |           70 |xxxxxxxxxxxxx |xxxxxxxxxxxxx |xxxxxxxxxxxxx |xxxxxxxxxxxxx |           70 |           70 |           70 |xxxxxxxxxxxxx |xxxxxxxxxxxxx |xxxxxxxxxxxxx |xxxxxxxxxxxxx |           70 |           70 |           70 |xxxxxxxxxxxxx |xxxxxxxxxxxxx |xxxxxxxxxxxxx |xxxxxxxxxxxxx |           70 |           70 |           70 |xxxxxxxxxxxxx |xxxxxxxxxxxxx |xxxxxxxxxxxxx |xxxxxxxxxxxxx |           70 |           70 |           70 |xxxxxxxxxxxxx |xxxxxxxxxxxxx |xxxxxxxxxxxxx |xxxxxxxxxxxxx |           70 |           70 |           70 |xxxxxxxxxxxxx |xxxxxxxxxxxxx |xxxxxxxxxxxxx |xxxxxxxxxxxxx |           70 |           70 |           70 |xxxxxxxxxxxxx |xxxxxxxxxxxxx |xxxxxxxxxxxxx |xxxxxxxxxxxxx |           72 |           72 |           72 |xxxxxxxxxxxxx |xxxxxxxxxxxxx |xxxxxxxxxxxxx |xxxxxxxxxxxxx |           72 |           72 |           72 |xxxxxxxxxxxxx |xxxxxxxxxxxxx |xxxxxxxxxxxxx |xxxxxxxxxxxxx |           72 |           72 |           72 |
bpred_bimod.ras_hits.PP                         61 |           61 |           61 |xxxxxxxxxxxxx |xxxxxxxxxxxxx |xxxxxxxxxxxxx |xxxxxxxxxxxxx |           69 |           69 |           69 |xxxxxxxxxxxxx |xxxxxxxxxxxxx |xxxxxxxxxxxxx |xxxxxxxxxxxxx |           69 |           69 |           69 |xxxxxxxxxxxxx |xxxxxxxxxxxxx |xxxxxxxxxxxxx |xxxxxxxxxxxxx |           69 |           69 |           69 |xxxxxxxxxxxxx |xxxxxxxxxxxxx |xxxxxxxxxxxxx |xxxxxxxxxxxxx |           69 |           69 |           69 |xxxxxxxxxxxxx |xxxxxxxxxxxxx |xxxxxxxxxxxxx |xxxxxxxxxxxxx |           69 |           69 |           69 |xxxxxxxxxxxxx |xxxxxxxxxxxxx |xxxxxxxxxxxxx |xxxxxxxxxxxxx |           69 |           69 |           69 |xxxxxxxxxxxxx |xxxxxxxxxxxxx |xxxxxxxxxxxxx |xxxxxxxxxxxxx |           69 |           69 |           69 |xxxxxxxxxxxxx |xxxxxxxxxxxxx |xxxxxxxxxxxxx |xxxxxxxxxxxxx |           72 |           72 |           72 |xxxxxxxxxxxxx |xxxxxxxxxxxxx |xxxxxxxxxxxxx |xxxxxxxxxxxxx |           72 |           72 |           72 |xxxxxxxxxxxxx |xxxxxxxxxxxxx |xxxxxxxxxxxxx |xxxxxxxxxxxxx |           72 |           72 |           72 |
bpred_bimod.ras_rate.PP                     1.0000 |       1.0000 |       1.0000 |xxxxxxxxxxxxx |xxxxxxxxxxxxx |xxxxxxxxxxxxx |xxxxxxxxxxxxx |       0.9857 |       0.9857 |       0.9857 |xxxxxxxxxxxxx |xxxxxxxxxxxxx |xxxxxxxxxxxxx |xxxxxxxxxxxxx |       0.9857 |       0.9857 |       0.9857 |xxxxxxxxxxxxx |xxxxxxxxxxxxx |xxxxxxxxxxxxx |xxxxxxxxxxxxx |       0.9857 |       0.9857 |       0.9857 |xxxxxxxxxxxxx |xxxxxxxxxxxxx |xxxxxxxxxxxxx |xxxxxxxxxxxxx |       0.9857 |       0.9857 |       0.9857 |xxxxxxxxxxxxx |xxxxxxxxxxxxx |xxxxxxxxxxxxx |xxxxxxxxxxxxx |       0.9857 |       0.9857 |       0.9857 |xxxxxxxxxxxxx |xxxxxxxxxxxxx |xxxxxxxxxxxxx |xxxxxxxxxxxxx |       0.9857 |       0.9857 |       0.9857 |xxxxxxxxxxxxx |xxxxxxxxxxxxx |xxxxxxxxxxxxx |xxxxxxxxxxxxx |       0.9857 |       0.9857 |       0.9857 |xxxxxxxxxxxxx |xxxxxxxxxxxxx |xxxxxxxxxxxxx |xxxxxxxxxxxxx |       1.0000 |       1.0000 |       1.0000 |xxxxxxxxxxxxx |xxxxxxxxxxxxx |xxxxxxxxxxxxx |xxxxxxxxxxxxx |       1.0000 |       1.0000 |       1.0000 |xxxxxxxxxxxxx |xxxxxxxxxxxxx |xxxxxxxxxxxxx |xxxxxxxxxxxxx |       1.0000 |       1.0000 |       1.0000 |
bpred_2lev.lookups                   xxxxxxxxxxxxx |xxxxxxxxxxxxx |xxxxxxxxxxxxx |         9239 |         9239 |         9239 |         9239 |xxxxxxxxxxxxx |xxxxxxxxxxxxx |xxxxxxxxxxxxx |        17471 |        17471 |        17471 |        17471 |xxxxxxxxxxxxx |xxxxxxxxxxxxx |xxxxxxxxxxxxx |        33855 |        33855 |        33855 |        33855 |xxxxxxxxxxxxx |xxxxxxxxxxxxx |xxxxxxxxxxxxx |        66623 |        66623 |        66623 |        66623 |xxxxxxxxxxxxx |xxxxxxxxxxxxx |xxxxxxxxxxxxx |       132159 |       132159 |       132159 |       132159 |xxxxxxxxxxxxx |xxxxxxxxxxxxx |xxxxxxxxxxxxx |       263231 |       263231 |       263231 |       263231 |xxxxxxxxxxxxx |xxxxxxxxxxxxx |xxxxxxxxxxxxx |       525375 |       525375 |       525375 |       525375 |xxxxxxxxxxxxx |xxxxxxxxxxxxx |xxxxxxxxxxxxx |      1049663 |      1049663 |      1049663 |      1049663 |xxxxxxxxxxxxx |xxxxxxxxxxxxx |xxxxxxxxxxxxx |      2099032 |      2099032 |      2099032 |      2099032 |xxxxxxxxxxxxx |xxxxxxxxxxxxx |xxxxxxxxxxxxx |      4196955 |      4196955 |      4196955 |      4196955 |xxxxxxxxxxxxx |xxxxxxxxxxxxx |xxxxxxxxxxxxx |      8392798 |      8392798 |      8392798 |      8392798 |
[...]
bpred_2lev.retstack_pops             xxxxxxxxxxxxx |xxxxxxxxxxxxx |xxxxxxxxxxxxx |           61 |           61 |           61 |           61 |xxxxxxxxxxxxx |xxxxxxxxxxxxx |xxxxxxxxxxxxx |           70 |           70 |           70 |           70 |xxxxxxxxxxxxx |xxxxxxxxxxxxx |xxxxxxxxxxxxx |           70 |           70 |           70 |           70 |xxxxxxxxxxxxx |xxxxxxxxxxxxx |xxxxxxxxxxxxx |           70 |           70 |           70 |           70 |xxxxxxxxxxxxx |xxxxxxxxxxxxx |xxxxxxxxxxxxx |           70 |           70 |           70 |           70 |xxxxxxxxxxxxx |xxxxxxxxxxxxx |xxxxxxxxxxxxx |           70 |           70 |           70 |           70 |xxxxxxxxxxxxx |xxxxxxxxxxxxx |xxxxxxxxxxxxx |           70 |           70 |           70 |           70 |xxxxxxxxxxxxx |xxxxxxxxxxxxx |xxxxxxxxxxxxx |           70 |           70 |           70 |           70 |xxxxxxxxxxxxx |xxxxxxxxxxxxx |xxxxxxxxxxxxx |           72 |           72 |           72 |           72 |xxxxxxxxxxxxx |xxxxxxxxxxxxx |xxxxxxxxxxxxx |           72 |           72 |           72 |           72 |xxxxxxxxxxxxx |xxxxxxxxxxxxx |xxxxxxxxxxxxx |           72 |           72 |           72 |           72 |
bpred_2lev.used_ras.PP               xxxxxxxxxxxxx |xxxxxxxxxxxxx |xxxxxxxxxxxxx |           61 |           61 |           61 |           61 |xxxxxxxxxxxxx |xxxxxxxxxxxxx |xxxxxxxxxxxxx |           70 |           70 |           70 |           70 |xxxxxxxxxxxxx |xxxxxxxxxxxxx |xxxxxxxxxxxxx |           70 |           70 |           70 |           70 |xxxxxxxxxxxxx |xxxxxxxxxxxxx |xxxxxxxxxxxxx |           70 |           70 |           70 |           70 |xxxxxxxxxxxxx |xxxxxxxxxxxxx |xxxxxxxxxxxxx |           70 |           70 |           70 |           70 |xxxxxxxxxxxxx |xxxxxxxxxxxxx |xxxxxxxxxxxxx |           70 |           70 |           70 |           70 |xxxxxxxxxxxxx |xxxxxxxxxxxxx |xxxxxxxxxxxxx |           70 |           70 |           70 |           70 |xxxxxxxxxxxxx |xxxxxxxxxxxxx |xxxxxxxxxxxxx |           70 |           70 |           70 |           70 |xxxxxxxxxxxxx |xxxxxxxxxxxxx |xxxxxxxxxxxxx |           72 |           72 |           72 |           72 |xxxxxxxxxxxxx |xxxxxxxxxxxxx |xxxxxxxxxxxxx |           72 |           72 |           72 |           72 |xxxxxxxxxxxxx |xxxxxxxxxxxxx |xxxxxxxxxxxxx |           72 |           72 |           72 |           72 |
bpred_2lev.ras_hits.PP               xxxxxxxxxxxxx |xxxxxxxxxxxxx |xxxxxxxxxxxxx |           61 |           61 |           61 |           61 |xxxxxxxxxxxxx |xxxxxxxxxxxxx |xxxxxxxxxxxxx |           69 |           69 |           69 |           69 |xxxxxxxxxxxxx |xxxxxxxxxxxxx |xxxxxxxxxxxxx |           69 |           69 |           69 |           69 |xxxxxxxxxxxxx |xxxxxxxxxxxxx |xxxxxxxxxxxxx |           69 |           69 |           69 |           69 |xxxxxxxxxxxxx |xxxxxxxxxxxxx |xxxxxxxxxxxxx |           69 |           69 |           69 |           69 |xxxxxxxxxxxxx |xxxxxxxxxxxxx |xxxxxxxxxxxxx |           69 |           69 |           69 |           69 |xxxxxxxxxxxxx |xxxxxxxxxxxxx |xxxxxxxxxxxxx |           69 |           69 |           69 |           69 |xxxxxxxxxxxxx |xxxxxxxxxxxxx |xxxxxxxxxxxxx |           69 |           69 |           69 |           69 |xxxxxxxxxxxxx |xxxxxxxxxxxxx |xxxxxxxxxxxxx |           72 |           72 |           72 |           72 |xxxxxxxxxxxxx |xxxxxxxxxxxxx |xxxxxxxxxxxxx |           72 |           72 |           72 |           72 |xxxxxxxxxxxxx |xxxxxxxxxxxxx |xxxxxxxxxxxxx |           72 |           72 |           72 |           72 |
bpred_2lev.ras_rate.PP               xxxxxxxxxxxxx |xxxxxxxxxxxxx |xxxxxxxxxxxxx |       1.0000 |       1.0000 |       1.0000 |       1.0000 |xxxxxxxxxxxxx |xxxxxxxxxxxxx |xxxxxxxxxxxxx |       0.9857 |       0.9857 |       0.9857 |       0.9857 |xxxxxxxxxxxxx |xxxxxxxxxxxxx |xxxxxxxxxxxxx |       0.9857 |       0.9857 |       0.9857 |       0.9857 |xxxxxxxxxxxxx |xxxxxxxxxxxxx |xxxxxxxxxxxxx |       0.9857 |       0.9857 |       0.9857 |       0.9857 |xxxxxxxxxxxxx |xxxxxxxxxxxxx |xxxxxxxxxxxxx |       0.9857 |       0.9857 |       0.9857 |       0.9857 |xxxxxxxxxxxxx |xxxxxxxxxxxxx |xxxxxxxxxxxxx |       0.9857 |       0.9857 |       0.9857 |       0.9857 |xxxxxxxxxxxxx |xxxxxxxxxxxxx |xxxxxxxxxxxxx |       0.9857 |       0.9857 |       0.9857 |       0.9857 |xxxxxxxxxxxxx |xxxxxxxxxxxxx |xxxxxxxxxxxxx |       0.9857 |       0.9857 |       0.9857 |       0.9857 |xxxxxxxxxxxxx |xxxxxxxxxxxxx |xxxxxxxxxxxxx |       1.0000 |       1.0000 |       1.0000 |       1.0000 |xxxxxxxxxxxxx |xxxxxxxxxxxxx |xxxxxxxxxxxxx |       1.0000 |       1.0000 |       1.0000 |       1.0000 |xxxxxxxxxxxxx |xxxxxxxxxxxxx |xxxxxxxxxxxxx |       1.0000 |       1.0000 |       1.0000 |       1.0000 |

Command list: 
	sslittle-na-sstrix-gcc -Wall -O3 -funroll-loops -finline-functions  -DRANDOM_SIZE=4096 -DOFFSET=3 -DSORT=memory_tuned_radixsort sorts/memory_tuned_radixsort1834660019.c simpleMain.c -o memory_tuned_radixsort111143768
	sim-cache -cache:dl1 dl1:256:32:1:l -cache:dl2 dl2:131072:32:1:l -cache:il1 il1:256:32:1:l -cache:il2 dl2 memory_tuned_radixsort111143768
	sim-cache -cache:dl1 dl1:256:32:1:l -cache:dl2 dl2:65536:32:1:l -cache:il1 il1:256:32:1:l -cache:il2 dl2 memory_tuned_radixsort111143768
	sim-cache -cache:dl1 dl1:1:32:256:l -cache:dl2 dl2:1:32:131072:l -cache:il1 il1:1:32:256:l -cache:il2 dl2 memory_tuned_radixsort111143768
	sim-cache -cache:dl1 dl1:1:32:256:l -cache:dl2 dl2:1:32:65536:l -cache:il1 il1:1:32:256:l -cache:il2 dl2 memory_tuned_radixsort111143768
	sim-bpred -bpred bimod -bpred:bimod 512 memory_tuned_radixsort111143768
	sim-bpred -bpred bimod -bpred:bimod 1024 memory_tuned_radixsort111143768
	sim-bpred -bpred bimod -bpred:bimod 2048 memory_tuned_radixsort111143768
	sim-bpred -bpred 2lev -bpred:2lev 1 512 10 1 memory_tuned_radixsort111143768
	sim-bpred -bpred 2lev -bpred:2lev 1 1024 10 1 memory_tuned_radixsort111143768
	sim-bpred -bpred 2lev -bpred:2lev 1 2048 10 1 memory_tuned_radixsort111143768
	sim-bpred -bpred 2lev -bpred:2lev 1 4096 10 1 memory_tuned_radixsort111143768
	sslittle-na-sstrix-gcc -Wall -O3 -funroll-loops -finline-functions  -DRANDOM_SIZE=8192 -DOFFSET=3 -DSORT=memory_tuned_radixsort sorts/memory_tuned_radixsort1834660019.c simpleMain.c -o memory_tuned_radixsort111143768
	sim-cache -cache:dl1 dl1:256:32:1:l -cache:dl2 dl2:131072:32:1:l -cache:il1 il1:256:32:1:l -cache:il2 dl2 memory_tuned_radixsort111143768
	sim-cache -cache:dl1 dl1:256:32:1:l -cache:dl2 dl2:65536:32:1:l -cache:il1 il1:256:32:1:l -cache:il2 dl2 memory_tuned_radixsort111143768
	sim-cache -cache:dl1 dl1:1:32:256:l -cache:dl2 dl2:1:32:131072:l -cache:il1 il1:1:32:256:l -cache:il2 dl2 memory_tuned_radixsort111143768
	sim-cache -cache:dl1 dl1:1:32:256:l -cache:dl2 dl2:1:32:65536:l -cache:il1 il1:1:32:256:l -cache:il2 dl2 memory_tuned_radixsort111143768
	sim-bpred -bpred bimod -bpred:bimod 512 memory_tuned_radixsort111143768
	sim-bpred -bpred bimod -bpred:bimod 1024 memory_tuned_radixsort111143768
	sim-bpred -bpred bimod -bpred:bimod 2048 memory_tuned_radixsort111143768
	sim-bpred -bpred 2lev -bpred:2lev 1 512 10 1 memory_tuned_radixsort111143768
	sim-bpred -bpred 2lev -bpred:2lev 1 1024 10 1 memory_tuned_radixsort111143768
	sim-bpred -bpred 2lev -bpred:2lev 1 2048 10 1 memory_tuned_radixsort111143768
	sim-bpred -bpred 2lev -bpred:2lev 1 4096 10 1 memory_tuned_radixsort111143768
	sslittle-na-sstrix-gcc -Wall -O3 -funroll-loops -finline-functions  -DRANDOM_SIZE=16384 -DOFFSET=3 -DSORT=memory_tuned_radixsort sorts/memory_tuned_radixsort1834660019.c simpleMain.c -o memory_tuned_radixsort111143768
	sim-cache -cache:dl1 dl1:256:32:1:l -cache:dl2 dl2:131072:32:1:l -cache:il1 il1:256:32:1:l -cache:il2 dl2 memory_tuned_radixsort111143768
	sim-cache -cache:dl1 dl1:256:32:1:l -cache:dl2 dl2:65536:32:1:l -cache:il1 il1:256:32:1:l -cache:il2 dl2 memory_tuned_radixsort111143768
	sim-cache -cache:dl1 dl1:1:32:256:l -cache:dl2 dl2:1:32:131072:l -cache:il1 il1:1:32:256:l -cache:il2 dl2 memory_tuned_radixsort111143768
	sim-cache -cache:dl1 dl1:1:32:256:l -cache:dl2 dl2:1:32:65536:l -cache:il1 il1:1:32:256:l -cache:il2 dl2 memory_tuned_radixsort111143768
	sim-bpred -bpred bimod -bpred:bimod 512 memory_tuned_radixsort111143768
	sim-bpred -bpred bimod -bpred:bimod 1024 memory_tuned_radixsort111143768
	sim-bpred -bpred bimod -bpred:bimod 2048 memory_tuned_radixsort111143768
	sim-bpred -bpred 2lev -bpred:2lev 1 512 10 1 memory_tuned_radixsort111143768
	sim-bpred -bpred 2lev -bpred:2lev 1 1024 10 1 memory_tuned_radixsort111143768
	sim-bpred -bpred 2lev -bpred:2lev 1 2048 10 1 memory_tuned_radixsort111143768
	sim-bpred -bpred 2lev -bpred:2lev 1 4096 10 1 memory_tuned_radixsort111143768
	sslittle-na-sstrix-gcc -Wall -O3 -funroll-loops -finline-functions  -DRANDOM_SIZE=32768 -DOFFSET=3 -DSORT=memory_tuned_radixsort sorts/memory_tuned_radixsort1834660019.c simpleMain.c -o memory_tuned_radixsort111143768
	sim-cache -cache:dl1 dl1:256:32:1:l -cache:dl2 dl2:131072:32:1:l -cache:il1 il1:256:32:1:l -cache:il2 dl2 memory_tuned_radixsort111143768
	sim-cache -cache:dl1 dl1:256:32:1:l -cache:dl2 dl2:65536:32:1:l -cache:il1 il1:256:32:1:l -cache:il2 dl2 memory_tuned_radixsort111143768
	sim-cache -cache:dl1 dl1:1:32:256:l -cache:dl2 dl2:1:32:131072:l -cache:il1 il1:1:32:256:l -cache:il2 dl2 memory_tuned_radixsort111143768
	sim-cache -cache:dl1 dl1:1:32:256:l -cache:dl2 dl2:1:32:65536:l -cache:il1 il1:1:32:256:l -cache:il2 dl2 memory_tuned_radixsort111143768
	sim-bpred -bpred bimod -bpred:bimod 512 memory_tuned_radixsort111143768
	sim-bpred -bpred bimod -bpred:bimod 1024 memory_tuned_radixsort111143768
	sim-bpred -bpred bimod -bpred:bimod 2048 memory_tuned_radixsort111143768
	sim-bpred -bpred 2lev -bpred:2lev 1 512 10 1 memory_tuned_radixsort111143768
	sim-bpred -bpred 2lev -bpred:2lev 1 1024 10 1 memory_tuned_radixsort111143768
	sim-bpred -bpred 2lev -bpred:2lev 1 2048 10 1 memory_tuned_radixsort111143768
	sim-bpred -bpred 2lev -bpred:2lev 1 4096 10 1 memory_tuned_radixsort111143768
	sslittle-na-sstrix-gcc -Wall -O3 -funroll-loops -finline-functions  -DRANDOM_SIZE=65536 -DOFFSET=3 -DSORT=memory_tuned_radixsort sorts/memory_tuned_radixsort1834660019.c simpleMain.c -o memory_tuned_radixsort111143768
	sim-cache -cache:dl1 dl1:256:32:1:l -cache:dl2 dl2:131072:32:1:l -cache:il1 il1:256:32:1:l -cache:il2 dl2 memory_tuned_radixsort111143768
	sim-cache -cache:dl1 dl1:256:32:1:l -cache:dl2 dl2:65536:32:1:l -cache:il1 il1:256:32:1:l -cache:il2 dl2 memory_tuned_radixsort111143768
	sim-cache -cache:dl1 dl1:1:32:256:l -cache:dl2 dl2:1:32:131072:l -cache:il1 il1:1:32:256:l -cache:il2 dl2 memory_tuned_radixsort111143768
	sim-cache -cache:dl1 dl1:1:32:256:l -cache:dl2 dl2:1:32:65536:l -cache:il1 il1:1:32:256:l -cache:il2 dl2 memory_tuned_radixsort111143768
	sim-bpred -bpred bimod -bpred:bimod 512 memory_tuned_radixsort111143768
	sim-bpred -bpred bimod -bpred:bimod 1024 memory_tuned_radixsort111143768
	sim-bpred -bpred bimod -bpred:bimod 2048 memory_tuned_radixsort111143768
	sim-bpred -bpred 2lev -bpred:2lev 1 512 10 1 memory_tuned_radixsort111143768
	sim-bpred -bpred 2lev -bpred:2lev 1 1024 10 1 memory_tuned_radixsort111143768
	sim-bpred -bpred 2lev -bpred:2lev 1 2048 10 1 memory_tuned_radixsort111143768
	sim-bpred -bpred 2lev -bpred:2lev 1 4096 10 1 memory_tuned_radixsort111143768
	sslittle-na-sstrix-gcc -Wall -O3 -funroll-loops -finline-functions  -DRANDOM_SIZE=131072 -DOFFSET=3 -DSORT=memory_tuned_radixsort sorts/memory_tuned_radixsort1834660019.c simpleMain.c -o memory_tuned_radixsort111143768
	sim-cache -cache:dl1 dl1:256:32:1:l -cache:dl2 dl2:131072:32:1:l -cache:il1 il1:256:32:1:l -cache:il2 dl2 memory_tuned_radixsort111143768
	sim-cache -cache:dl1 dl1:256:32:1:l -cache:dl2 dl2:65536:32:1:l -cache:il1 il1:256:32:1:l -cache:il2 dl2 memory_tuned_radixsort111143768
	sim-cache -cache:dl1 dl1:1:32:256:l -cache:dl2 dl2:1:32:131072:l -cache:il1 il1:1:32:256:l -cache:il2 dl2 memory_tuned_radixsort111143768
	sim-cache -cache:dl1 dl1:1:32:256:l -cache:dl2 dl2:1:32:65536:l -cache:il1 il1:1:32:256:l -cache:il2 dl2 memory_tuned_radixsort111143768
	sim-bpred -bpred bimod -bpred:bimod 512 memory_tuned_radixsort111143768
	sim-bpred -bpred bimod -bpred:bimod 1024 memory_tuned_radixsort111143768
	sim-bpred -bpred bimod -bpred:bimod 2048 memory_tuned_radixsort111143768
	sim-bpred -bpred 2lev -bpred:2lev 1 512 10 1 memory_tuned_radixsort111143768
	sim-bpred -bpred 2lev -bpred:2lev 1 1024 10 1 memory_tuned_radixsort111143768
	sim-bpred -bpred 2lev -bpred:2lev 1 2048 10 1 memory_tuned_radixsort111143768
	sim-bpred -bpred 2lev -bpred:2lev 1 4096 10 1 memory_tuned_radixsort111143768
	sslittle-na-sstrix-gcc -Wall -O3 -funroll-loops -finline-functions  -DRANDOM_SIZE=262144 -DOFFSET=3 -DSORT=memory_tuned_radixsort sorts/memory_tuned_radixsort1834660019.c simpleMain.c -o memory_tuned_radixsort111143768
	sim-cache -cache:dl1 dl1:256:32:1:l -cache:dl2 dl2:131072:32:1:l -cache:il1 il1:256:32:1:l -cache:il2 dl2 memory_tuned_radixsort111143768
	sim-cache -cache:dl1 dl1:256:32:1:l -cache:dl2 dl2:65536:32:1:l -cache:il1 il1:256:32:1:l -cache:il2 dl2 memory_tuned_radixsort111143768
	sim-cache -cache:dl1 dl1:1:32:256:l -cache:dl2 dl2:1:32:131072:l -cache:il1 il1:1:32:256:l -cache:il2 dl2 memory_tuned_radixsort111143768
	sim-cache -cache:dl1 dl1:1:32:256:l -cache:dl2 dl2:1:32:65536:l -cache:il1 il1:1:32:256:l -cache:il2 dl2 memory_tuned_radixsort111143768
	sim-bpred -bpred bimod -bpred:bimod 512 memory_tuned_radixsort111143768
	sim-bpred -bpred bimod -bpred:bimod 1024 memory_tuned_radixsort111143768
	sim-bpred -bpred bimod -bpred:bimod 2048 memory_tuned_radixsort111143768
	sim-bpred -bpred 2lev -bpred:2lev 1 512 10 1 memory_tuned_radixsort111143768
	sim-bpred -bpred 2lev -bpred:2lev 1 1024 10 1 memory_tuned_radixsort111143768
	sim-bpred -bpred 2lev -bpred:2lev 1 2048 10 1 memory_tuned_radixsort111143768
	sim-bpred -bpred 2lev -bpred:2lev 1 4096 10 1 memory_tuned_radixsort111143768
	sslittle-na-sstrix-gcc -Wall -O3 -funroll-loops -finline-functions  -DRANDOM_SIZE=524288 -DOFFSET=3 -DSORT=memory_tuned_radixsort sorts/memory_tuned_radixsort1834660019.c simpleMain.c -o memory_tuned_radixsort111143768
	sim-cache -cache:dl1 dl1:256:32:1:l -cache:dl2 dl2:131072:32:1:l -cache:il1 il1:256:32:1:l -cache:il2 dl2 memory_tuned_radixsort111143768
	sim-cache -cache:dl1 dl1:256:32:1:l -cache:dl2 dl2:65536:32:1:l -cache:il1 il1:256:32:1:l -cache:il2 dl2 memory_tuned_radixsort111143768
	sim-cache -cache:dl1 dl1:1:32:256:l -cache:dl2 dl2:1:32:131072:l -cache:il1 il1:1:32:256:l -cache:il2 dl2 memory_tuned_radixsort111143768
	sim-cache -cache:dl1 dl1:1:32:256:l -cache:dl2 dl2:1:32:65536:l -cache:il1 il1:1:32:256:l -cache:il2 dl2 memory_tuned_radixsort111143768
	sim-bpred -bpred bimod -bpred:bimod 512 memory_tuned_radixsort111143768
	sim-bpred -bpred bimod -bpred:bimod 1024 memory_tuned_radixsort111143768
	sim-bpred -bpred bimod -bpred:bimod 2048 memory_tuned_radixsort111143768
	sim-bpred -bpred 2lev -bpred:2lev 1 512 10 1 memory_tuned_radixsort111143768
	sim-bpred -bpred 2lev -bpred:2lev 1 1024 10 1 memory_tuned_radixsort111143768
	sim-bpred -bpred 2lev -bpred:2lev 1 2048 10 1 memory_tuned_radixsort111143768
	sim-bpred -bpred 2lev -bpred:2lev 1 4096 10 1 memory_tuned_radixsort111143768
	sslittle-na-sstrix-gcc -Wall -O3 -funroll-loops -finline-functions  -DRANDOM_SIZE=1048576 -DOFFSET=3 -DSORT=memory_tuned_radixsort sorts/memory_tuned_radixsort1834660019.c simpleMain.c -o memory_tuned_radixsort111143768
	sim-cache -cache:dl1 dl1:256:32:1:l -cache:dl2 dl2:131072:32:1:l -cache:il1 il1:256:32:1:l -cache:il2 dl2 memory_tuned_radixsort111143768
	sim-cache -cache:dl1 dl1:256:32:1:l -cache:dl2 dl2:65536:32:1:l -cache:il1 il1:256:32:1:l -cache:il2 dl2 memory_tuned_radixsort111143768
	sim-cache -cache:dl1 dl1:1:32:256:l -cache:dl2 dl2:1:32:131072:l -cache:il1 il1:1:32:256:l -cache:il2 dl2 memory_tuned_radixsort111143768
	sim-cache -cache:dl1 dl1:1:32:256:l -cache:dl2 dl2:1:32:65536:l -cache:il1 il1:1:32:256:l -cache:il2 dl2 memory_tuned_radixsort111143768
	sim-bpred -bpred bimod -bpred:bimod 512 memory_tuned_radixsort111143768
	sim-bpred -bpred bimod -bpred:bimod 1024 memory_tuned_radixsort111143768
	sim-bpred -bpred bimod -bpred:bimod 2048 memory_tuned_radixsort111143768
	sim-bpred -bpred 2lev -bpred:2lev 1 512 10 1 memory_tuned_radixsort111143768
	sim-bpred -bpred 2lev -bpred:2lev 1 1024 10 1 memory_tuned_radixsort111143768
	sim-bpred -bpred 2lev -bpred:2lev 1 2048 10 1 memory_tuned_radixsort111143768
	sim-bpred -bpred 2lev -bpred:2lev 1 4096 10 1 memory_tuned_radixsort111143768
	sslittle-na-sstrix-gcc -Wall -O3 -funroll-loops -finline-functions  -DRANDOM_SIZE=2097152 -DOFFSET=3 -DSORT=memory_tuned_radixsort sorts/memory_tuned_radixsort1834660019.c simpleMain.c -o memory_tuned_radixsort111143768
	sim-cache -cache:dl1 dl1:256:32:1:l -cache:dl2 dl2:131072:32:1:l -cache:il1 il1:256:32:1:l -cache:il2 dl2 memory_tuned_radixsort111143768
	sim-cache -cache:dl1 dl1:256:32:1:l -cache:dl2 dl2:65536:32:1:l -cache:il1 il1:256:32:1:l -cache:il2 dl2 memory_tuned_radixsort111143768
	sim-cache -cache:dl1 dl1:1:32:256:l -cache:dl2 dl2:1:32:131072:l -cache:il1 il1:1:32:256:l -cache:il2 dl2 memory_tuned_radixsort111143768
	sim-cache -cache:dl1 dl1:1:32:256:l -cache:dl2 dl2:1:32:65536:l -cache:il1 il1:1:32:256:l -cache:il2 dl2 memory_tuned_radixsort111143768
	sim-bpred -bpred bimod -bpred:bimod 512 memory_tuned_radixsort111143768
	sim-bpred -bpred bimod -bpred:bimod 1024 memory_tuned_radixsort111143768
	sim-bpred -bpred bimod -bpred:bimod 2048 memory_tuned_radixsort111143768
	sim-bpred -bpred 2lev -bpred:2lev 1 512 10 1 memory_tuned_radixsort111143768
	sim-bpred -bpred 2lev -bpred:2lev 1 1024 10 1 memory_tuned_radixsort111143768
	sim-bpred -bpred 2lev -bpred:2lev 1 2048 10 1 memory_tuned_radixsort111143768
	sim-bpred -bpred 2lev -bpred:2lev 1 4096 10 1 memory_tuned_radixsort111143768
	sslittle-na-sstrix-gcc -Wall -O3 -funroll-loops -finline-functions  -DRANDOM_SIZE=4194304 -DOFFSET=3 -DSORT=memory_tuned_radixsort sorts/memory_tuned_radixsort1834660019.c simpleMain.c -o memory_tuned_radixsort111143768
	sim-cache -cache:dl1 dl1:256:32:1:l -cache:dl2 dl2:131072:32:1:l -cache:il1 il1:256:32:1:l -cache:il2 dl2 memory_tuned_radixsort111143768
	sim-cache -cache:dl1 dl1:256:32:1:l -cache:dl2 dl2:65536:32:1:l -cache:il1 il1:256:32:1:l -cache:il2 dl2 memory_tuned_radixsort111143768
	sim-cache -cache:dl1 dl1:1:32:256:l -cache:dl2 dl2:1:32:131072:l -cache:il1 il1:1:32:256:l -cache:il2 dl2 memory_tuned_radixsort111143768
	sim-cache -cache:dl1 dl1:1:32:256:l -cache:dl2 dl2:1:32:65536:l -cache:il1 il1:1:32:256:l -cache:il2 dl2 memory_tuned_radixsort111143768
	sim-bpred -bpred bimod -bpred:bimod 512 memory_tuned_radixsort111143768
	sim-bpred -bpred bimod -bpred:bimod 1024 memory_tuned_radixsort111143768
	sim-bpred -bpred bimod -bpred:bimod 2048 memory_tuned_radixsort111143768
	sim-bpred -bpred 2lev -bpred:2lev 1 512 10 1 memory_tuned_radixsort111143768
	sim-bpred -bpred 2lev -bpred:2lev 1 1024 10 1 memory_tuned_radixsort111143768
	sim-bpred -bpred 2lev -bpred:2lev 1 2048 10 1 memory_tuned_radixsort111143768
	sim-bpred -bpred 2lev -bpred:2lev 1 4096 10 1 memory_tuned_radixsort111143768
