Mon Jul 25 08:19:02 2005
Run as: "./do_simple -c random.org7 -o 7 memory_tuned_heapsort"
-------------------------------------------------------------------------------------------------
sim-cache                                     4096 |         4096 |         4096 |         4096 |         8192 |         8192 |         8192 |         8192 |        16384 |        16384 |        16384 |        16384 |        32768 |        32768 |        32768 |        32768 |        65536 |        65536 |        65536 |        65536 |       131072 |       131072 |       131072 |       131072 |       262144 |       262144 |       262144 |       262144 |       524288 |       524288 |       524288 |       524288 |      1048576 |      1048576 |      1048576 |      1048576 |      2097152 |      2097152 |      2097152 |      2097152 |      4194304 |      4194304 |      4194304 |      4194304 |
-cache:dl1 dl1:256:32:1:l -cache:dl2 dl2:131072:32:1:l -cache:il1 il1:256:32:1:l -cache:il2 dl2
-cache:dl1 dl1:256:32:1:l -cache:dl2 dl2:65536:32:1:l -cache:il1 il1:256:32:1:l -cache:il2 dl2
-cache:dl1 dl1:1:32:256:l -cache:dl2 dl2:1:32:131072:l -cache:il1 il1:1:32:256:l -cache:il2 dl2
-cache:dl1 dl1:1:32:256:l -cache:dl2 dl2:1:32:65536:l -cache:il1 il1:1:32:256:l -cache:il2 dl2
-------------------------------------------------------------------------------------------------
sim_num_insn                               1016932 |      1016932 |      1016932 |      1016932 |      2190543 |      2190543 |      2190543 |      2190543 |      4725004 |      4725004 |      4725004 |      4725004 |     10002739 |     10002739 |     10002739 |     10002739 |     21306689 |     21306689 |     21306689 |     21306689 |     45448149 |     45448149 |     45448149 |     45448149 |     95372924 |     95372924 |     95372924 |     95372924 |    201142464 |    201142464 |    201142464 |    201142464 |    425185547 |    425185547 |    425185547 |    425185547 |    886218509 |    886218509 |    886218509 |    886218509 |   1855400770 |   1855400770 |   1855400770 |   1855400770 |
sim_num_refs                                279777 |       279777 |       279777 |       279777 |       600811 |       600811 |       600811 |       600811 |      1293556 |      1293556 |      1293556 |      1293556 |      2733484 |      2733484 |      2733484 |      2733484 |      5822731 |      5822731 |      5822731 |      5822731 |     12420348 |     12420348 |     12420348 |     12420348 |     26038657 |     26038657 |     26038657 |     26038657 |     54934830 |     54934830 |     54934830 |     54934830 |    116135345 |    116135345 |    116135345 |    116135345 |    241884831 |    241884831 |    241884831 |    241884831 |    506581915 |    506581915 |    506581915 |    506581915 |
sim_elapsed_time                                 1 |            1 |           10 |            5 |            1 |            1 |           16 |            8 |            2 |            1 |           27 |           14 |            3 |            3 |           48 |           26 |            7 |            6 |           91 |           45 |           13 |           13 |          168 |           79 |           27 |           28 |          288 |          114 |           58 |           57 |          405 |          147 |          122 |          122 |          476 |          217 |          255 |          254 |          623 |          363 |          534 |          536 |          931 |          671 |
sim_inst_rate                         1016932.0000 | 1016932.0000 |  101693.2000 |  203386.4000 | 2190543.0000 | 2190543.0000 |  136908.9375 |  273817.8750 | 2362502.0000 | 4725004.0000 |  175000.1481 |  337500.2857 | 3334246.3333 | 3334246.3333 |  208390.3958 |  384720.7308 | 3043812.7143 | 3551114.8333 |  234139.4396 |  473481.9778 | 3496011.4615 | 3496011.4615 |  270524.6964 |  575293.0253 | 3532330.5185 | 3406175.8571 |  331155.9861 |  836604.5965 | 3467973.5172 | 3528815.1579 |  496648.0593 | 1368316.0816 | 3485127.4344 | 3485127.4344 |  893246.9475 | 1959380.4009 | 3475366.7020 | 3489049.2480 | 1422501.6196 | 2441373.3030 | 3474533.2772 | 3461568.6007 | 1992911.6756 | 2765127.8241 |
il1.accesses                               1016932 |      1016932 |      1016932 |      1016932 |      2190543 |      2190543 |      2190543 |      2190543 |      4725004 |      4725004 |      4725004 |      4725004 |     10002739 |     10002739 |     10002739 |     10002739 |     21306689 |     21306689 |     21306689 |     21306689 |     45448149 |     45448149 |     45448149 |     45448149 |     95372924 |     95372924 |     95372924 |     95372924 |    201142464 |    201142464 |    201142464 |    201142464 |    425185547 |    425185547 |    425185547 |    425185547 |    886218509 |    886218509 |    886218509 |    886218509 |   1855400770 |   1855400770 |   1855400770 |   1855400770 |
il1.hits                                   1016404 |      1016404 |      1016492 |      1016492 |      2189975 |      2189975 |      2190084 |      2190084 |      4724435 |      4724435 |      4724549 |      4724549 |     10002172 |     10002172 |     10002279 |     10002279 |     21306122 |     21306122 |     21306229 |     21306229 |     45447582 |     45447582 |     45447690 |     45447690 |     95372357 |     95372357 |     95372465 |     95372465 |    201141897 |    201141897 |    201142005 |    201142005 |    425184944 |    425184944 |    425185054 |    425185054 |    886217906 |    886217906 |    886218016 |    886218016 |   1855400167 |   1855400167 |   1855400277 |   1855400277 |
il1.misses                                     528 |          528 |          440 |          440 |          568 |          568 |          459 |          459 |          569 |          569 |          455 |          455 |          567 |          567 |          460 |          460 |          567 |          567 |          460 |          460 |          567 |          567 |          459 |          459 |          567 |          567 |          459 |          459 |          567 |          567 |          459 |          459 |          603 |          603 |          493 |          493 |          603 |          603 |          493 |          493 |          603 |          603 |          493 |          493 |
il1.replacements                               315 |          315 |          184 |          184 |          347 |          347 |          203 |          203 |          348 |          348 |          199 |          199 |          346 |          346 |          204 |          204 |          346 |          346 |          204 |          204 |          346 |          346 |          203 |          203 |          346 |          346 |          203 |          203 |          346 |          346 |          203 |          203 |          387 |          387 |          237 |          237 |          387 |          387 |          237 |          237 |          387 |          387 |          237 |          237 |
il1.writebacks                                   0 |            0 |            0 |            0 |            0 |            0 |            0 |            0 |            0 |            0 |            0 |            0 |            0 |            0 |            0 |            0 |            0 |            0 |            0 |            0 |            0 |            0 |            0 |            0 |            0 |            0 |            0 |            0 |            0 |            0 |            0 |            0 |            0 |            0 |            0 |            0 |            0 |            0 |            0 |            0 |            0 |            0 |            0 |            0 |
il1.invalidations                                0 |            0 |            0 |            0 |            0 |            0 |            0 |            0 |            0 |            0 |            0 |            0 |            0 |            0 |            0 |            0 |            0 |            0 |            0 |            0 |            0 |            0 |            0 |            0 |            0 |            0 |            0 |            0 |            0 |            0 |            0 |            0 |            0 |            0 |            0 |            0 |            0 |            0 |            0 |            0 |            0 |            0 |            0 |            0 |
il1.miss_rate                               0.0005 |       0.0005 |       0.0004 |       0.0004 |       0.0003 |       0.0003 |       0.0002 |       0.0002 |       0.0001 |       0.0001 |       0.0001 |       0.0001 |       0.0001 |       0.0001 |       0.0000 |       0.0000 |       0.0000 |       0.0000 |       0.0000 |       0.0000 |       0.0000 |       0.0000 |       0.0000 |       0.0000 |       0.0000 |       0.0000 |       0.0000 |       0.0000 |       0.0000 |       0.0000 |       0.0000 |       0.0000 |       0.0000 |       0.0000 |       0.0000 |       0.0000 |       0.0000 |       0.0000 |       0.0000 |       0.0000 |       0.0000 |       0.0000 |       0.0000 |       0.0000 |
il1.repl_rate                               0.0003 |       0.0003 |       0.0002 |       0.0002 |       0.0002 |       0.0002 |       0.0001 |       0.0001 |       0.0001 |       0.0001 |       0.0000 |       0.0000 |       0.0000 |       0.0000 |       0.0000 |       0.0000 |       0.0000 |       0.0000 |       0.0000 |       0.0000 |       0.0000 |       0.0000 |       0.0000 |       0.0000 |       0.0000 |       0.0000 |       0.0000 |       0.0000 |       0.0000 |       0.0000 |       0.0000 |       0.0000 |       0.0000 |       0.0000 |       0.0000 |       0.0000 |       0.0000 |       0.0000 |       0.0000 |       0.0000 |       0.0000 |       0.0000 |       0.0000 |       0.0000 |
il1.wb_rate                                 0.0000 |       0.0000 |       0.0000 |       0.0000 |       0.0000 |       0.0000 |       0.0000 |       0.0000 |       0.0000 |       0.0000 |       0.0000 |       0.0000 |       0.0000 |       0.0000 |       0.0000 |       0.0000 |       0.0000 |       0.0000 |       0.0000 |       0.0000 |       0.0000 |       0.0000 |       0.0000 |       0.0000 |       0.0000 |       0.0000 |       0.0000 |       0.0000 |       0.0000 |       0.0000 |       0.0000 |       0.0000 |       0.0000 |       0.0000 |       0.0000 |       0.0000 |       0.0000 |       0.0000 |       0.0000 |       0.0000 |       0.0000 |       0.0000 |       0.0000 |       0.0000 |
il1.inv_rate                                0.0000 |       0.0000 |       0.0000 |       0.0000 |       0.0000 |       0.0000 |       0.0000 |       0.0000 |       0.0000 |       0.0000 |       0.0000 |       0.0000 |       0.0000 |       0.0000 |       0.0000 |       0.0000 |       0.0000 |       0.0000 |       0.0000 |       0.0000 |       0.0000 |       0.0000 |       0.0000 |       0.0000 |       0.0000 |       0.0000 |       0.0000 |       0.0000 |       0.0000 |       0.0000 |       0.0000 |       0.0000 |       0.0000 |       0.0000 |       0.0000 |       0.0000 |       0.0000 |       0.0000 |       0.0000 |       0.0000 |       0.0000 |       0.0000 |       0.0000 |       0.0000 |
dl1.accesses                                296243 |       296243 |       296243 |       296243 |       633661 |       633661 |       633661 |       633661 |      1359174 |      1359174 |      1359174 |      1359174 |      2864638 |      2864638 |      2864638 |      2864638 |      6084957 |      6084957 |      6084957 |      6084957 |     12944718 |     12944718 |     12944718 |     12944718 |     27087315 |     27087315 |     27087315 |     27087315 |     57032064 |     57032064 |     57032064 |     57032064 |    120329731 |    120329731 |    120329731 |    120329731 |    250273521 |    250273521 |    250273521 |    250273521 |    523359213 |    523359213 |    523359213 |    523359213 |
dl1.hits                                    291721 |       291721 |       292292 |       292292 |       621739 |       621739 |       623388 |       623388 |      1329728 |      1329728 |      1332622 |      1332622 |      2791536 |      2791536 |      2799035 |      2799035 |      5911495 |      5911495 |      5927417 |      5927417 |     12547497 |     12547497 |     12579257 |     12579257 |     26182035 |     26182035 |     26254461 |     26254461 |     55012143 |     55012143 |     55162545 |     55162545 |    115891673 |    115891673 |    116197018 |    116197018 |    240553768 |    240553768 |    241209235 |    241209235 |    502310794 |    502310794 |    503667553 |    503667553 |
dl1.misses                                    4522 |         4522 |         3951 |         3951 |        11922 |        11922 |        10273 |        10273 |        29446 |        29446 |        26552 |        26552 |        73102 |        73102 |        65603 |        65603 |       173462 |       173462 |       157540 |       157540 |       397221 |       397221 |       365461 |       365461 |       905280 |       905280 |       832854 |       832854 |      2019921 |      2019921 |      1869519 |      1869519 |      4438058 |      4438058 |      4132713 |      4132713 |      9719753 |      9719753 |      9064286 |      9064286 |     21048419 |     21048419 |     19691660 |     19691660 |
dl1.replacements                              4266 |         4266 |         3695 |         3695 |        11666 |        11666 |        10017 |        10017 |        29190 |        29190 |        26296 |        26296 |        72846 |        72846 |        65347 |        65347 |       173206 |       173206 |       157284 |       157284 |       396965 |       396965 |       365205 |       365205 |       905024 |       905024 |       832598 |       832598 |      2019665 |      2019665 |      1869263 |      1869263 |      4437802 |      4437802 |      4132457 |      4132457 |      9719497 |      9719497 |      9064030 |      9064030 |     21048163 |     21048163 |     19691404 |     19691404 |
dl1.writebacks                                3620 |         3620 |         3129 |         3129 |        10281 |        10281 |         8784 |         8784 |        26215 |        26215 |        23669 |        23669 |        66580 |        66580 |        59834 |        59834 |       160160 |       160160 |       146035 |       146035 |       370089 |       370089 |       342163 |       342163 |       850223 |       850223 |       786309 |       786309 |      1908141 |      1908141 |      1776378 |      1776378 |      4210000 |      4210000 |      3945689 |      3945689 |      9259712 |      9259712 |      8690946 |      8690946 |     20119291 |     20119291 |     18946044 |     18946044 |
dl1.invalidations                                0 |            0 |            0 |            0 |            0 |            0 |            0 |            0 |            0 |            0 |            0 |            0 |            0 |            0 |            0 |            0 |            0 |            0 |            0 |            0 |            0 |            0 |            0 |            0 |            0 |            0 |            0 |            0 |            0 |            0 |            0 |            0 |            0 |            0 |            0 |            0 |            0 |            0 |            0 |            0 |            0 |            0 |            0 |            0 |
dl1.miss_rate                               0.0153 |       0.0153 |       0.0133 |       0.0133 |       0.0188 |       0.0188 |       0.0162 |       0.0162 |       0.0217 |       0.0217 |       0.0195 |       0.0195 |       0.0255 |       0.0255 |       0.0229 |       0.0229 |       0.0285 |       0.0285 |       0.0259 |       0.0259 |       0.0307 |       0.0307 |       0.0282 |       0.0282 |       0.0334 |       0.0334 |       0.0307 |       0.0307 |       0.0354 |       0.0354 |       0.0328 |       0.0328 |       0.0369 |       0.0369 |       0.0343 |       0.0343 |       0.0388 |       0.0388 |       0.0362 |       0.0362 |       0.0402 |       0.0402 |       0.0376 |       0.0376 |
dl1.repl_rate                               0.0144 |       0.0144 |       0.0125 |       0.0125 |       0.0184 |       0.0184 |       0.0158 |       0.0158 |       0.0215 |       0.0215 |       0.0193 |       0.0193 |       0.0254 |       0.0254 |       0.0228 |       0.0228 |       0.0285 |       0.0285 |       0.0258 |       0.0258 |       0.0307 |       0.0307 |       0.0282 |       0.0282 |       0.0334 |       0.0334 |       0.0307 |       0.0307 |       0.0354 |       0.0354 |       0.0328 |       0.0328 |       0.0369 |       0.0369 |       0.0343 |       0.0343 |       0.0388 |       0.0388 |       0.0362 |       0.0362 |       0.0402 |       0.0402 |       0.0376 |       0.0376 |
dl1.wb_rate                                 0.0122 |       0.0122 |       0.0106 |       0.0106 |       0.0162 |       0.0162 |       0.0139 |       0.0139 |       0.0193 |       0.0193 |       0.0174 |       0.0174 |       0.0232 |       0.0232 |       0.0209 |       0.0209 |       0.0263 |       0.0263 |       0.0240 |       0.0240 |       0.0286 |       0.0286 |       0.0264 |       0.0264 |       0.0314 |       0.0314 |       0.0290 |       0.0290 |       0.0335 |       0.0335 |       0.0311 |       0.0311 |       0.0350 |       0.0350 |       0.0328 |       0.0328 |       0.0370 |       0.0370 |       0.0347 |       0.0347 |       0.0384 |       0.0384 |       0.0362 |       0.0362 |
dl1.inv_rate                                0.0000 |       0.0000 |       0.0000 |       0.0000 |       0.0000 |       0.0000 |       0.0000 |       0.0000 |       0.0000 |       0.0000 |       0.0000 |       0.0000 |       0.0000 |       0.0000 |       0.0000 |       0.0000 |       0.0000 |       0.0000 |       0.0000 |       0.0000 |       0.0000 |       0.0000 |       0.0000 |       0.0000 |       0.0000 |       0.0000 |       0.0000 |       0.0000 |       0.0000 |       0.0000 |       0.0000 |       0.0000 |       0.0000 |       0.0000 |       0.0000 |       0.0000 |       0.0000 |       0.0000 |       0.0000 |       0.0000 |       0.0000 |       0.0000 |       0.0000 |       0.0000 |
dl2.accesses                                  8670 |         8670 |         7520 |         7520 |        22771 |        22771 |        19516 |        19516 |        56230 |        56230 |        50676 |        50676 |       140249 |       140249 |       125897 |       125897 |       334189 |       334189 |       304035 |       304035 |       767877 |       767877 |       708083 |       708083 |      1756070 |      1756070 |      1619622 |      1619622 |      3928629 |      3928629 |      3646356 |      3646356 |      8648661 |      8648661 |      8078895 |      8078895 |     18980068 |     18980068 |     17755725 |     17755725 |     41168313 |     41168313 |     38638197 |     38638197 |
dl2.hits                                      6757 |         6757 |         5652 |         5652 |        19832 |        19832 |        16633 |        16633 |        51241 |        51241 |        45748 |        45748 |       131157 |       131157 |       116869 |       116869 |       316905 |       316905 |       286815 |       286815 |       734206 |       734206 |       674480 |       674480 |      1689633 |      1687122 |      1553251 |      1529014 |      3794147 |      3572427 |      3471725 |      3321611 |      7934586 |      7661960 |      7429355 |      7177266 |     17006626 |     16246874 |     15953284 |     15239295 |     35701358 |     34177673 |     33607272 |     31975523 |
dl2.misses                                    1913 |         1913 |         1868 |         1868 |         2939 |         2939 |         2883 |         2883 |         4989 |         4989 |         4928 |         4928 |         9092 |         9092 |         9028 |         9028 |        17284 |        17284 |        17220 |        17220 |        33671 |        33671 |        33603 |        33603 |        66437 |        68948 |        66371 |        90608 |       134482 |       356202 |       174631 |       324745 |       714075 |       986701 |       649540 |       901629 |      1973442 |      2733194 |      1802441 |      2516430 |      5466955 |      6990640 |      5030925 |      6662674 |
dl2.replacements                               273 |          273 |            0 |            0 |          270 |          270 |            0 |            0 |          296 |          296 |            0 |            0 |          302 |          302 |            0 |            0 |          302 |          302 |            0 |            0 |          306 |          306 |            0 |            0 |          304 |         4490 |            0 |        25072 |         4488 |       290666 |        43559 |       259209 |       583003 |       921165 |       518468 |       836093 |      1842370 |      2667658 |      1671369 |      2450894 |      5335883 |      6925104 |      4899853 |      6597138 |
dl2.writebacks                                 150 |          150 |            0 |            0 |          145 |          145 |            0 |            0 |          165 |          165 |            0 |            0 |          170 |          170 |            0 |            0 |          170 |          170 |            0 |            0 |          170 |          170 |            0 |            0 |          170 |         4356 |            0 |        24333 |         4356 |       227036 |        42820 |       192905 |       455062 |       780323 |       386008 |       693854 |      1561417 |      2358182 |      1387167 |      2137167 |      4717220 |      6255839 |      4272768 |      5923785 |
dl2.invalidations                                0 |            0 |            0 |            0 |            0 |            0 |            0 |            0 |            0 |            0 |            0 |            0 |            0 |            0 |            0 |            0 |            0 |            0 |            0 |            0 |            0 |            0 |            0 |            0 |            0 |            0 |            0 |            0 |            0 |            0 |            0 |            0 |            0 |            0 |            0 |            0 |            0 |            0 |            0 |            0 |            0 |            0 |            0 |            0 |
dl2.miss_rate                               0.2206 |       0.2206 |       0.2484 |       0.2484 |       0.1291 |       0.1291 |       0.1477 |       0.1477 |       0.0887 |       0.0887 |       0.0972 |       0.0972 |       0.0648 |       0.0648 |       0.0717 |       0.0717 |       0.0517 |       0.0517 |       0.0566 |       0.0566 |       0.0438 |       0.0438 |       0.0475 |       0.0475 |       0.0378 |       0.0393 |       0.0410 |       0.0559 |       0.0342 |       0.0907 |       0.0479 |       0.0891 |       0.0826 |       0.1141 |       0.0804 |       0.1116 |       0.1040 |       0.1440 |       0.1015 |       0.1417 |       0.1328 |       0.1698 |       0.1302 |       0.1724 |
dl2.repl_rate                               0.0315 |       0.0315 |       0.0000 |       0.0000 |       0.0119 |       0.0119 |       0.0000 |       0.0000 |       0.0053 |       0.0053 |       0.0000 |       0.0000 |       0.0022 |       0.0022 |       0.0000 |       0.0000 |       0.0009 |       0.0009 |       0.0000 |       0.0000 |       0.0004 |       0.0004 |       0.0000 |       0.0000 |       0.0002 |       0.0026 |       0.0000 |       0.0155 |       0.0011 |       0.0740 |       0.0119 |       0.0711 |       0.0674 |       0.1065 |       0.0642 |       0.1035 |       0.0971 |       0.1406 |       0.0941 |       0.1380 |       0.1296 |       0.1682 |       0.1268 |       0.1707 |
dl2.wb_rate                                 0.0173 |       0.0173 |       0.0000 |       0.0000 |       0.0064 |       0.0064 |       0.0000 |       0.0000 |       0.0029 |       0.0029 |       0.0000 |       0.0000 |       0.0012 |       0.0012 |       0.0000 |       0.0000 |       0.0005 |       0.0005 |       0.0000 |       0.0000 |       0.0002 |       0.0002 |       0.0000 |       0.0000 |       0.0001 |       0.0025 |       0.0000 |       0.0150 |       0.0011 |       0.0578 |       0.0117 |       0.0529 |       0.0526 |       0.0902 |       0.0478 |       0.0859 |       0.0823 |       0.1242 |       0.0781 |       0.1204 |       0.1146 |       0.1520 |       0.1106 |       0.1533 |
dl2.inv_rate                                0.0000 |       0.0000 |       0.0000 |       0.0000 |       0.0000 |       0.0000 |       0.0000 |       0.0000 |       0.0000 |       0.0000 |       0.0000 |       0.0000 |       0.0000 |       0.0000 |       0.0000 |       0.0000 |       0.0000 |       0.0000 |       0.0000 |       0.0000 |       0.0000 |       0.0000 |       0.0000 |       0.0000 |       0.0000 |       0.0000 |       0.0000 |       0.0000 |       0.0000 |       0.0000 |       0.0000 |       0.0000 |       0.0000 |       0.0000 |       0.0000 |       0.0000 |       0.0000 |       0.0000 |       0.0000 |       0.0000 |       0.0000 |       0.0000 |       0.0000 |       0.0000 |
itlb.accesses                              1016932 |      1016932 |      1016932 |      1016932 |      2190543 |      2190543 |      2190543 |      2190543 |      4725004 |      4725004 |      4725004 |      4725004 |     10002739 |     10002739 |     10002739 |     10002739 |     21306689 |     21306689 |     21306689 |     21306689 |     45448149 |     45448149 |     45448149 |     45448149 |     95372924 |     95372924 |     95372924 |     95372924 |    201142464 |    201142464 |    201142464 |    201142464 |    425185547 |    425185547 |    425185547 |    425185547 |    886218509 |    886218509 |    886218509 |    886218509 |   1855400770 |   1855400770 |   1855400770 |   1855400770 |
itlb.hits                                  1016922 |      1016922 |      1016922 |      1016922 |      2190533 |      2190533 |      2190533 |      2190533 |      4724994 |      4724994 |      4724994 |      4724994 |     10002729 |     10002729 |     10002729 |     10002729 |     21306679 |     21306679 |     21306679 |     21306679 |     45448139 |     45448139 |     45448139 |     45448139 |     95372914 |     95372914 |     95372914 |     95372914 |    201142454 |    201142454 |    201142454 |    201142454 |    425185537 |    425185537 |    425185537 |    425185537 |    886218499 |    886218499 |    886218499 |    886218499 |   1855400760 |   1855400760 |   1855400760 |   1855400760 |
itlb.misses                                     10 |           10 |           10 |           10 |           10 |           10 |           10 |           10 |           10 |           10 |           10 |           10 |           10 |           10 |           10 |           10 |           10 |           10 |           10 |           10 |           10 |           10 |           10 |           10 |           10 |           10 |           10 |           10 |           10 |           10 |           10 |           10 |           10 |           10 |           10 |           10 |           10 |           10 |           10 |           10 |           10 |           10 |           10 |           10 |
itlb.replacements                                0 |            0 |            0 |            0 |            0 |            0 |            0 |            0 |            0 |            0 |            0 |            0 |            0 |            0 |            0 |            0 |            0 |            0 |            0 |            0 |            0 |            0 |            0 |            0 |            0 |            0 |            0 |            0 |            0 |            0 |            0 |            0 |            0 |            0 |            0 |            0 |            0 |            0 |            0 |            0 |            0 |            0 |            0 |            0 |
itlb.writebacks                                  0 |            0 |            0 |            0 |            0 |            0 |            0 |            0 |            0 |            0 |            0 |            0 |            0 |            0 |            0 |            0 |            0 |            0 |            0 |            0 |            0 |            0 |            0 |            0 |            0 |            0 |            0 |            0 |            0 |            0 |            0 |            0 |            0 |            0 |            0 |            0 |            0 |            0 |            0 |            0 |            0 |            0 |            0 |            0 |
itlb.invalidations                               0 |            0 |            0 |            0 |            0 |            0 |            0 |            0 |            0 |            0 |            0 |            0 |            0 |            0 |            0 |            0 |            0 |            0 |            0 |            0 |            0 |            0 |            0 |            0 |            0 |            0 |            0 |            0 |            0 |            0 |            0 |            0 |            0 |            0 |            0 |            0 |            0 |            0 |            0 |            0 |            0 |            0 |            0 |            0 |
itlb.miss_rate                              0.0000 |       0.0000 |       0.0000 |       0.0000 |       0.0000 |       0.0000 |       0.0000 |       0.0000 |       0.0000 |       0.0000 |       0.0000 |       0.0000 |       0.0000 |       0.0000 |       0.0000 |       0.0000 |       0.0000 |       0.0000 |       0.0000 |       0.0000 |       0.0000 |       0.0000 |       0.0000 |       0.0000 |       0.0000 |       0.0000 |       0.0000 |       0.0000 |       0.0000 |       0.0000 |       0.0000 |       0.0000 |       0.0000 |       0.0000 |       0.0000 |       0.0000 |       0.0000 |       0.0000 |       0.0000 |       0.0000 |       0.0000 |       0.0000 |       0.0000 |       0.0000 |
itlb.repl_rate                              0.0000 |       0.0000 |       0.0000 |       0.0000 |       0.0000 |       0.0000 |       0.0000 |       0.0000 |       0.0000 |       0.0000 |       0.0000 |       0.0000 |       0.0000 |       0.0000 |       0.0000 |       0.0000 |       0.0000 |       0.0000 |       0.0000 |       0.0000 |       0.0000 |       0.0000 |       0.0000 |       0.0000 |       0.0000 |       0.0000 |       0.0000 |       0.0000 |       0.0000 |       0.0000 |       0.0000 |       0.0000 |       0.0000 |       0.0000 |       0.0000 |       0.0000 |       0.0000 |       0.0000 |       0.0000 |       0.0000 |       0.0000 |       0.0000 |       0.0000 |       0.0000 |
itlb.wb_rate                                0.0000 |       0.0000 |       0.0000 |       0.0000 |       0.0000 |       0.0000 |       0.0000 |       0.0000 |       0.0000 |       0.0000 |       0.0000 |       0.0000 |       0.0000 |       0.0000 |       0.0000 |       0.0000 |       0.0000 |       0.0000 |       0.0000 |       0.0000 |       0.0000 |       0.0000 |       0.0000 |       0.0000 |       0.0000 |       0.0000 |       0.0000 |       0.0000 |       0.0000 |       0.0000 |       0.0000 |       0.0000 |       0.0000 |       0.0000 |       0.0000 |       0.0000 |       0.0000 |       0.0000 |       0.0000 |       0.0000 |       0.0000 |       0.0000 |       0.0000 |       0.0000 |
itlb.inv_rate                               0.0000 |       0.0000 |       0.0000 |       0.0000 |       0.0000 |       0.0000 |       0.0000 |       0.0000 |       0.0000 |       0.0000 |       0.0000 |       0.0000 |       0.0000 |       0.0000 |       0.0000 |       0.0000 |       0.0000 |       0.0000 |       0.0000 |       0.0000 |       0.0000 |       0.0000 |       0.0000 |       0.0000 |       0.0000 |       0.0000 |       0.0000 |       0.0000 |       0.0000 |       0.0000 |       0.0000 |       0.0000 |       0.0000 |       0.0000 |       0.0000 |       0.0000 |       0.0000 |       0.0000 |       0.0000 |       0.0000 |       0.0000 |       0.0000 |       0.0000 |       0.0000 |
dtlb.accesses                               296243 |       296243 |       296243 |       296243 |       633661 |       633661 |       633661 |       633661 |      1359174 |      1359174 |      1359174 |      1359174 |      2864638 |      2864638 |      2864638 |      2864638 |      6084957 |      6084957 |      6084957 |      6084957 |     12944718 |     12944718 |     12944718 |     12944718 |     27087315 |     27087315 |     27087315 |     27087315 |     57032064 |     57032064 |     57032064 |     57032064 |    120329731 |    120329731 |    120329731 |    120329731 |    250273521 |    250273521 |    250273521 |    250273521 |    523359213 |    523359213 |    523359213 |    523359213 |
dtlb.hits                                   296227 |       296227 |       296227 |       296227 |       633637 |       633637 |       633637 |       633637 |      1359134 |      1359134 |      1359134 |      1359134 |      2864566 |      2864566 |      2864566 |      2864566 |      6084810 |      6084810 |      6084810 |      6084810 |     12943887 |     12943887 |     12943887 |     12943887 |     27041210 |     27041210 |     27041210 |     27041210 |     56773552 |     56773552 |     56773552 |     56773552 |    119406833 |    119406833 |    119406833 |    119406833 |    247585388 |    247585388 |    247585388 |    247585388 |    516253669 |    516253669 |    516253669 |    516253669 |
dtlb.misses                                     16 |           16 |           16 |           16 |           24 |           24 |           24 |           24 |           40 |           40 |           40 |           40 |           72 |           72 |           72 |           72 |          147 |          147 |          147 |          147 |          831 |          831 |          831 |          831 |        46105 |        46105 |        46105 |        46105 |       258512 |       258512 |       258512 |       258512 |       922898 |       922898 |       922898 |       922898 |      2688133 |      2688133 |      2688133 |      2688133 |      7105544 |      7105544 |      7105544 |      7105544 |
dtlb.replacements                                0 |            0 |            0 |            0 |            0 |            0 |            0 |            0 |            0 |            0 |            0 |            0 |            0 |            0 |            0 |            0 |           19 |           19 |           19 |           19 |          703 |          703 |          703 |          703 |        45977 |        45977 |        45977 |        45977 |       258384 |       258384 |       258384 |       258384 |       922770 |       922770 |       922770 |       922770 |      2688005 |      2688005 |      2688005 |      2688005 |      7105416 |      7105416 |      7105416 |      7105416 |
dtlb.writebacks                                  0 |            0 |            0 |            0 |            0 |            0 |            0 |            0 |            0 |            0 |            0 |            0 |            0 |            0 |            0 |            0 |           16 |           16 |           16 |           16 |          578 |          578 |          578 |          578 |        44521 |        44521 |        44521 |        44521 |       248831 |       248831 |       248831 |       248831 |       890269 |       890269 |       890269 |       890269 |      2604024 |      2604024 |      2604024 |      2604024 |      6913699 |      6913699 |      6913699 |      6913699 |
dtlb.invalidations                               0 |            0 |            0 |            0 |            0 |            0 |            0 |            0 |            0 |            0 |            0 |            0 |            0 |            0 |            0 |            0 |            0 |            0 |            0 |            0 |            0 |            0 |            0 |            0 |            0 |            0 |            0 |            0 |            0 |            0 |            0 |            0 |            0 |            0 |            0 |            0 |            0 |            0 |            0 |            0 |            0 |            0 |            0 |            0 |
dtlb.miss_rate                              0.0001 |       0.0001 |       0.0001 |       0.0001 |       0.0000 |       0.0000 |       0.0000 |       0.0000 |       0.0000 |       0.0000 |       0.0000 |       0.0000 |       0.0000 |       0.0000 |       0.0000 |       0.0000 |       0.0000 |       0.0000 |       0.0000 |       0.0000 |       0.0001 |       0.0001 |       0.0001 |       0.0001 |       0.0017 |       0.0017 |       0.0017 |       0.0017 |       0.0045 |       0.0045 |       0.0045 |       0.0045 |       0.0077 |       0.0077 |       0.0077 |       0.0077 |       0.0107 |       0.0107 |       0.0107 |       0.0107 |       0.0136 |       0.0136 |       0.0136 |       0.0136 |
dtlb.repl_rate                              0.0000 |       0.0000 |       0.0000 |       0.0000 |       0.0000 |       0.0000 |       0.0000 |       0.0000 |       0.0000 |       0.0000 |       0.0000 |       0.0000 |       0.0000 |       0.0000 |       0.0000 |       0.0000 |       0.0000 |       0.0000 |       0.0000 |       0.0000 |       0.0001 |       0.0001 |       0.0001 |       0.0001 |       0.0017 |       0.0017 |       0.0017 |       0.0017 |       0.0045 |       0.0045 |       0.0045 |       0.0045 |       0.0077 |       0.0077 |       0.0077 |       0.0077 |       0.0107 |       0.0107 |       0.0107 |       0.0107 |       0.0136 |       0.0136 |       0.0136 |       0.0136 |
dtlb.wb_rate                                0.0000 |       0.0000 |       0.0000 |       0.0000 |       0.0000 |       0.0000 |       0.0000 |       0.0000 |       0.0000 |       0.0000 |       0.0000 |       0.0000 |       0.0000 |       0.0000 |       0.0000 |       0.0000 |       0.0000 |       0.0000 |       0.0000 |       0.0000 |       0.0000 |       0.0000 |       0.0000 |       0.0000 |       0.0016 |       0.0016 |       0.0016 |       0.0016 |       0.0044 |       0.0044 |       0.0044 |       0.0044 |       0.0074 |       0.0074 |       0.0074 |       0.0074 |       0.0104 |       0.0104 |       0.0104 |       0.0104 |       0.0132 |       0.0132 |       0.0132 |       0.0132 |
dtlb.inv_rate                               0.0000 |       0.0000 |       0.0000 |       0.0000 |       0.0000 |       0.0000 |       0.0000 |       0.0000 |       0.0000 |       0.0000 |       0.0000 |       0.0000 |       0.0000 |       0.0000 |       0.0000 |       0.0000 |       0.0000 |       0.0000 |       0.0000 |       0.0000 |       0.0000 |       0.0000 |       0.0000 |       0.0000 |       0.0000 |       0.0000 |       0.0000 |       0.0000 |       0.0000 |       0.0000 |       0.0000 |       0.0000 |       0.0000 |       0.0000 |       0.0000 |       0.0000 |       0.0000 |       0.0000 |       0.0000 |       0.0000 |       0.0000 |       0.0000 |       0.0000 |       0.0000 |
ld_text_base                            0x00400000 |   0x00400000 |   0x00400000 |   0x00400000 |   0x00400000 |   0x00400000 |   0x00400000 |   0x00400000 |   0x00400000 |   0x00400000 |   0x00400000 |   0x00400000 |   0x00400000 |   0x00400000 |   0x00400000 |   0x00400000 |   0x00400000 |   0x00400000 |   0x00400000 |   0x00400000 |   0x00400000 |   0x00400000 |   0x00400000 |   0x00400000 |   0x00400000 |   0x00400000 |   0x00400000 |   0x00400000 |   0x00400000 |   0x00400000 |   0x00400000 |   0x00400000 |   0x00400000 |   0x00400000 |   0x00400000 |   0x00400000 |   0x00400000 |   0x00400000 |   0x00400000 |   0x00400000 |   0x00400000 |   0x00400000 |   0x00400000 |   0x00400000 |
ld_text_size                                 74528 |        74528 |        74528 |        74528 |        74560 |        74560 |        74560 |        74560 |        74576 |        74576 |        74576 |        74576 |        74592 |        74592 |        74592 |        74592 |        74592 |        74592 |        74592 |        74592 |        74592 |        74592 |        74592 |        74592 |        74592 |        74592 |        74592 |        74592 |        74592 |        74592 |        74592 |        74592 |        74592 |        74592 |        74592 |        74592 |        74592 |        74592 |        74592 |        74592 |        74592 |        74592 |        74592 |        74592 |
ld_data_base                            0x10000000 |   0x10000000 |   0x10000000 |   0x10000000 |   0x10000000 |   0x10000000 |   0x10000000 |   0x10000000 |   0x10000000 |   0x10000000 |   0x10000000 |   0x10000000 |   0x10000000 |   0x10000000 |   0x10000000 |   0x10000000 |   0x10000000 |   0x10000000 |   0x10000000 |   0x10000000 |   0x10000000 |   0x10000000 |   0x10000000 |   0x10000000 |   0x10000000 |   0x10000000 |   0x10000000 |   0x10000000 |   0x10000000 |   0x10000000 |   0x10000000 |   0x10000000 |   0x10000000 |   0x10000000 |   0x10000000 |   0x10000000 |   0x10000000 |   0x10000000 |   0x10000000 |   0x10000000 |   0x10000000 |   0x10000000 |   0x10000000 |   0x10000000 |
ld_data_size                                  8192 |         8192 |         8192 |         8192 |         8192 |         8192 |         8192 |         8192 |         8192 |         8192 |         8192 |         8192 |         8192 |         8192 |         8192 |         8192 |         8192 |         8192 |         8192 |         8192 |         8192 |         8192 |         8192 |         8192 |         8192 |         8192 |         8192 |         8192 |         8192 |         8192 |         8192 |         8192 |         8192 |         8192 |         8192 |         8192 |         8192 |         8192 |         8192 |         8192 |         8192 |         8192 |         8192 |         8192 |
ld_stack_base                           0x7fffc000 |   0x7fffc000 |   0x7fffc000 |   0x7fffc000 |   0x7fffc000 |   0x7fffc000 |   0x7fffc000 |   0x7fffc000 |   0x7fffc000 |   0x7fffc000 |   0x7fffc000 |   0x7fffc000 |   0x7fffc000 |   0x7fffc000 |   0x7fffc000 |   0x7fffc000 |   0x7fffc000 |   0x7fffc000 |   0x7fffc000 |   0x7fffc000 |   0x7fffc000 |   0x7fffc000 |   0x7fffc000 |   0x7fffc000 |   0x7fffc000 |   0x7fffc000 |   0x7fffc000 |   0x7fffc000 |   0x7fffc000 |   0x7fffc000 |   0x7fffc000 |   0x7fffc000 |   0x7fffc000 |   0x7fffc000 |   0x7fffc000 |   0x7fffc000 |   0x7fffc000 |   0x7fffc000 |   0x7fffc000 |   0x7fffc000 |   0x7fffc000 |   0x7fffc000 |   0x7fffc000 |   0x7fffc000 |
ld_stack_size                                16384 |        16384 |        16384 |        16384 |        16384 |        16384 |        16384 |        16384 |        16384 |        16384 |        16384 |        16384 |        16384 |        16384 |        16384 |        16384 |        16384 |        16384 |        16384 |        16384 |        16384 |        16384 |        16384 |        16384 |        16384 |        16384 |        16384 |        16384 |        16384 |        16384 |        16384 |        16384 |        16384 |        16384 |        16384 |        16384 |        16384 |        16384 |        16384 |        16384 |        16384 |        16384 |        16384 |        16384 |
ld_prog_entry                           0x00400140 |   0x00400140 |   0x00400140 |   0x00400140 |   0x00400140 |   0x00400140 |   0x00400140 |   0x00400140 |   0x00400140 |   0x00400140 |   0x00400140 |   0x00400140 |   0x00400140 |   0x00400140 |   0x00400140 |   0x00400140 |   0x00400140 |   0x00400140 |   0x00400140 |   0x00400140 |   0x00400140 |   0x00400140 |   0x00400140 |   0x00400140 |   0x00400140 |   0x00400140 |   0x00400140 |   0x00400140 |   0x00400140 |   0x00400140 |   0x00400140 |   0x00400140 |   0x00400140 |   0x00400140 |   0x00400140 |   0x00400140 |   0x00400140 |   0x00400140 |   0x00400140 |   0x00400140 |   0x00400140 |   0x00400140 |   0x00400140 |   0x00400140 |
ld_environ_base                         0x7fff8000 |   0x7fff8000 |   0x7fff8000 |   0x7fff8000 |   0x7fff8000 |   0x7fff8000 |   0x7fff8000 |   0x7fff8000 |   0x7fff8000 |   0x7fff8000 |   0x7fff8000 |   0x7fff8000 |   0x7fff8000 |   0x7fff8000 |   0x7fff8000 |   0x7fff8000 |   0x7fff8000 |   0x7fff8000 |   0x7fff8000 |   0x7fff8000 |   0x7fff8000 |   0x7fff8000 |   0x7fff8000 |   0x7fff8000 |   0x7fff8000 |   0x7fff8000 |   0x7fff8000 |   0x7fff8000 |   0x7fff8000 |   0x7fff8000 |   0x7fff8000 |   0x7fff8000 |   0x7fff8000 |   0x7fff8000 |   0x7fff8000 |   0x7fff8000 |   0x7fff8000 |   0x7fff8000 |   0x7fff8000 |   0x7fff8000 |   0x7fff8000 |   0x7fff8000 |   0x7fff8000 |   0x7fff8000 |
ld_target_big_endian                             0 |            0 |            0 |            0 |            0 |            0 |            0 |            0 |            0 |            0 |            0 |            0 |            0 |            0 |            0 |            0 |            0 |            0 |            0 |            0 |            0 |            0 |            0 |            0 |            0 |            0 |            0 |            0 |            0 |            0 |            0 |            0 |            0 |            0 |            0 |            0 |            0 |            0 |            0 |            0 |            0 |            0 |            0 |            0 |
mem.page_count                                  35 |           35 |           35 |           35 |           43 |           43 |           43 |           43 |           59 |           59 |           59 |           59 |           91 |           91 |           91 |           91 |          155 |          155 |          155 |          155 |          283 |          283 |          283 |          283 |          539 |          539 |          539 |          539 |         1051 |         1051 |         1051 |         1051 |         2081 |         2081 |         2081 |         2081 |         4135 |         4135 |         4135 |         4135 |         8243 |         8243 |         8243 |         8243 |
mem.page_mem                                  140k |         140k |         140k |         140k |         172k |         172k |         172k |         172k |         236k |         236k |         236k |         236k |         364k |         364k |         364k |         364k |         620k |         620k |         620k |         620k |        1132k |        1132k |        1132k |        1132k |        2156k |        2156k |        2156k |        2156k |        4204k |        4204k |        4204k |        4204k |        8324k |        8324k |        8324k |        8324k |       16540k |       16540k |       16540k |       16540k |       32972k |       32972k |       32972k |       32972k |
mem.ptab_misses                                 35 |           35 |           35 |           35 |           43 |           43 |           43 |           43 |           59 |           59 |           59 |           59 |           91 |           91 |           91 |           91 |          155 |          155 |          155 |          155 |          283 |          283 |          283 |          283 |          539 |          539 |          539 |          539 |         1051 |         1051 |         1051 |         1051 |         8826 |         8826 |         8826 |         8826 |        34030 |        34030 |        34030 |        34030 |        61172 |        61172 |        61172 |        61172 |
mem.ptab_accesses                          5121960 |      5121960 |      5121960 |      5121960 |     10491432 |     10491432 |     10491432 |     10491432 |     22080398 |     22080398 |     22080398 |     22080398 |     46202362 |     46202362 |     46202362 |     46202362 |     97858800 |     97858800 |     97858800 |     97858800 |    208144162 |    208144162 |    208144162 |    208144162 |    436128456 |    436128456 |    436128456 |    436128456 |    919096114 |    919096114 |    919096114 |    919096114 |   1941863780 |   1941863780 |   1941863780 |   1941863780 |   4045883208 |   4045883208 |   4045883208 |   4045883208 |   8468783636 |   8468783636 |   8468783636 |   8468783636 |
mem.ptab_miss_rate                          0.0000 |       0.0000 |       0.0000 |       0.0000 |       0.0000 |       0.0000 |       0.0000 |       0.0000 |       0.0000 |       0.0000 |       0.0000 |       0.0000 |       0.0000 |       0.0000 |       0.0000 |       0.0000 |       0.0000 |       0.0000 |       0.0000 |       0.0000 |       0.0000 |       0.0000 |       0.0000 |       0.0000 |       0.0000 |       0.0000 |       0.0000 |       0.0000 |       0.0000 |       0.0000 |       0.0000 |       0.0000 |       0.0000 |       0.0000 |       0.0000 |       0.0000 |       0.0000 |       0.0000 |       0.0000 |       0.0000 |       0.0000 |       0.0000 |       0.0000 |       0.0000 |
-------------------------------------------------------------------------------------------------
sim-bpred                                     4096 |         4096 |         4096 |         4096 |         4096 |         4096 |         4096 |         8192 |         8192 |         8192 |         8192 |         8192 |         8192 |         8192 |        16384 |        16384 |        16384 |        16384 |        16384 |        16384 |        16384 |        32768 |        32768 |        32768 |        32768 |        32768 |        32768 |        32768 |        65536 |        65536 |        65536 |        65536 |        65536 |        65536 |        65536 |       131072 |       131072 |       131072 |       131072 |       131072 |       131072 |       131072 |       262144 |       262144 |       262144 |       262144 |       262144 |       262144 |       262144 |       524288 |       524288 |       524288 |       524288 |       524288 |       524288 |       524288 |      1048576 |      1048576 |      1048576 |      1048576 |      1048576 |      1048576 |      1048576 |      2097152 |      2097152 |      2097152 |      2097152 |      2097152 |      2097152 |      2097152 |      4194304 |      4194304 |      4194304 |      4194304 |      4194304 |      4194304 |      4194304 |
-bpred bimod -bpred:bimod 512
-bpred bimod -bpred:bimod 1024
-bpred bimod -bpred:bimod 2048
-bpred 2lev -bpred:2lev 1 512 10 1
-bpred 2lev -bpred:2lev 1 1024 10 1
-bpred 2lev -bpred:2lev 1 2048 10 1
-bpred 2lev -bpred:2lev 1 4096 10 1
-------------------------------------------------------------------------------------------------
sim_num_insn                               1016932 |      1016932 |      1016932 |      1016932 |      1016932 |      1016932 |      1016932 |      2190543 |      2190543 |      2190543 |      2190543 |      2190543 |      2190543 |      2190543 |      4725004 |      4725004 |      4725004 |      4725004 |      4725004 |      4725004 |      4725004 |     10002739 |     10002739 |     10002739 |     10002739 |     10002739 |     10002739 |     10002739 |     21306689 |     21306689 |     21306689 |     21306689 |     21306689 |     21306689 |     21306689 |     45448149 |     45448149 |     45448149 |     45448149 |     45448149 |     45448149 |     45448149 |     95372924 |     95372924 |     95372924 |     95372924 |     95372924 |     95372924 |     95372924 |    201142464 |    201142464 |    201142464 |    201142464 |    201142464 |    201142464 |    201142464 |    425185547 |    425185547 |    425185547 |    425185547 |    425185547 |    425185547 |    425185547 |    886218509 |    886218509 |    886218509 |    886218509 |    886218509 |    886218509 |    886218509 |   1855400770 |   1855400770 |   1855400770 |   1855400770 |   1855400770 |   1855400770 |   1855400770 |
sim_num_refs                                279777 |       279777 |       279777 |       279777 |       279777 |       279777 |       279777 |       600811 |       600811 |       600811 |       600811 |       600811 |       600811 |       600811 |      1293556 |      1293556 |      1293556 |      1293556 |      1293556 |      1293556 |      1293556 |      2733484 |      2733484 |      2733484 |      2733484 |      2733484 |      2733484 |      2733484 |      5822731 |      5822731 |      5822731 |      5822731 |      5822731 |      5822731 |      5822731 |     12420348 |     12420348 |     12420348 |     12420348 |     12420348 |     12420348 |     12420348 |     26038657 |     26038657 |     26038657 |     26038657 |     26038657 |     26038657 |     26038657 |     54934830 |     54934830 |     54934830 |     54934830 |     54934830 |     54934830 |     54934830 |    116135345 |    116135345 |    116135345 |    116135345 |    116135345 |    116135345 |    116135345 |    241884831 |    241884831 |    241884831 |    241884831 |    241884831 |    241884831 |    241884831 |    506581915 |    506581915 |    506581915 |    506581915 |    506581915 |    506581915 |    506581915 |
sim_elapsed_time                                 1 |            1 |            1 |            1 |            1 |            1 |            1 |            1 |            1 |            1 |            1 |            1 |            1 |            1 |            1 |            1 |            1 |            1 |            1 |            1 |            1 |            1 |            1 |            2 |            1 |            1 |            2 |            1 |            3 |            3 |            3 |            3 |            3 |            3 |            3 |            6 |            6 |            6 |            7 |            6 |            6 |            6 |           12 |           13 |           12 |           12 |           13 |           13 |           13 |           27 |           27 |           26 |           28 |           27 |           28 |           27 |           57 |           56 |           57 |           57 |           58 |           58 |           58 |          118 |          117 |          118 |          120 |          120 |          121 |          120 |          244 |          242 |          241 |          248 |          247 |          248 |          248 |
sim_inst_rate                         1016932.0000 | 1016932.0000 | 1016932.0000 | 1016932.0000 | 1016932.0000 | 1016932.0000 | 1016932.0000 | 2190543.0000 | 2190543.0000 | 2190543.0000 | 2190543.0000 | 2190543.0000 | 2190543.0000 | 2190543.0000 | 4725004.0000 | 4725004.0000 | 4725004.0000 | 4725004.0000 | 4725004.0000 | 4725004.0000 | 4725004.0000 |10002739.0000 |10002739.0000 | 5001369.5000 |10002739.0000 |10002739.0000 | 5001369.5000 |10002739.0000 | 7102229.6667 | 7102229.6667 | 7102229.6667 | 7102229.6667 | 7102229.6667 | 7102229.6667 | 7102229.6667 | 7574691.5000 | 7574691.5000 | 7574691.5000 | 6492592.7143 | 7574691.5000 | 7574691.5000 | 7574691.5000 | 7947743.6667 | 7336378.7692 | 7947743.6667 | 7947743.6667 | 7336378.7692 | 7336378.7692 | 7336378.7692 | 7449720.8889 | 7449720.8889 | 7736248.6154 | 7183659.4286 | 7449720.8889 | 7183659.4286 | 7449720.8889 | 7459395.5614 | 7592599.0536 | 7459395.5614 | 7459395.5614 | 7330785.2931 | 7330785.2931 | 7330785.2931 | 7510326.3475 | 7574517.1709 | 7510326.3475 | 7385154.2417 | 7385154.2417 | 7324119.9091 | 7385154.2417 | 7604101.5164 | 7666945.3306 | 7698758.3817 | 7481454.7177 | 7511744.0081 | 7481454.7177 | 7481454.7177 |
sim_num_branches                            171787 |       171787 |       171787 |       171787 |       171787 |       171787 |       171787 |       370967 |       370967 |       370967 |       370967 |       370967 |       370967 |       370967 |       800953 |       800953 |       800953 |       800953 |       800953 |       800953 |       800953 |      1694886 |      1694886 |      1694886 |      1694886 |      1694886 |      1694886 |      1694886 |      3613760 |      3613760 |      3613760 |      3613760 |      3613760 |      3613760 |      3613760 |      7713055 |      7713055 |      7713055 |      7713055 |      7713055 |      7713055 |      7713055 |     16176851 |     16176851 |     16176851 |     16176851 |     16176851 |     16176851 |     16176851 |     34141410 |     34141410 |     34141410 |     34141410 |     34141410 |     34141410 |     34141410 |     72196352 |     72196352 |     72196352 |     72196352 |     72196352 |     72196352 |     72196352 |    150406345 |    150406345 |    150406345 |    150406345 |    150406345 |    150406345 |    150406345 |    315075435 |    315075435 |    315075435 |    315075435 |    315075435 |    315075435 |    315075435 |
sim_IPB                                     5.9197 |       5.9197 |       5.9197 |       5.9197 |       5.9197 |       5.9197 |       5.9197 |       5.9050 |       5.9050 |       5.9050 |       5.9050 |       5.9050 |       5.9050 |       5.9050 |       5.8992 |       5.8992 |       5.8992 |       5.8992 |       5.8992 |       5.8992 |       5.8992 |       5.9017 |       5.9017 |       5.9017 |       5.9017 |       5.9017 |       5.9017 |       5.9017 |       5.8960 |       5.8960 |       5.8960 |       5.8960 |       5.8960 |       5.8960 |       5.8960 |       5.8924 |       5.8924 |       5.8924 |       5.8924 |       5.8924 |       5.8924 |       5.8924 |       5.8956 |       5.8956 |       5.8956 |       5.8956 |       5.8956 |       5.8956 |       5.8956 |       5.8915 |       5.8915 |       5.8915 |       5.8915 |       5.8915 |       5.8915 |       5.8915 |       5.8893 |       5.8893 |       5.8893 |       5.8893 |       5.8893 |       5.8893 |       5.8893 |       5.8922 |       5.8922 |       5.8922 |       5.8922 |       5.8922 |       5.8922 |       5.8922 |       5.8888 |       5.8888 |       5.8888 |       5.8888 |       5.8888 |       5.8888 |       5.8888 |
bpred_bimod.lookups                         171787 |       171787 |       171787 |xxxxxxxxxxxxx |xxxxxxxxxxxxx |xxxxxxxxxxxxx |xxxxxxxxxxxxx |       370967 |       370967 |       370967 |xxxxxxxxxxxxx |xxxxxxxxxxxxx |xxxxxxxxxxxxx |xxxxxxxxxxxxx |       800953 |       800953 |       800953 |xxxxxxxxxxxxx |xxxxxxxxxxxxx |xxxxxxxxxxxxx |xxxxxxxxxxxxx |      1694886 |      1694886 |      1694886 |xxxxxxxxxxxxx |xxxxxxxxxxxxx |xxxxxxxxxxxxx |xxxxxxxxxxxxx |      3613760 |      3613760 |      3613760 |xxxxxxxxxxxxx |xxxxxxxxxxxxx |xxxxxxxxxxxxx |xxxxxxxxxxxxx |      7713055 |      7713055 |      7713055 |xxxxxxxxxxxxx |xxxxxxxxxxxxx |xxxxxxxxxxxxx |xxxxxxxxxxxxx |     16176851 |     16176851 |     16176851 |xxxxxxxxxxxxx |xxxxxxxxxxxxx |xxxxxxxxxxxxx |xxxxxxxxxxxxx |     34141410 |     34141410 |     34141410 |xxxxxxxxxxxxx |xxxxxxxxxxxxx |xxxxxxxxxxxxx |xxxxxxxxxxxxx |     72196352 |     72196352 |     72196352 |xxxxxxxxxxxxx |xxxxxxxxxxxxx |xxxxxxxxxxxxx |xxxxxxxxxxxxx |    150406345 |    150406345 |    150406345 |xxxxxxxxxxxxx |xxxxxxxxxxxxx |xxxxxxxxxxxxx |xxxxxxxxxxxxx |    315075435 |    315075435 |    315075435 |
bpred_bimod.updates                         171787 |       171787 |       171787 |xxxxxxxxxxxxx |xxxxxxxxxxxxx |xxxxxxxxxxxxx |xxxxxxxxxxxxx |       370967 |       370967 |       370967 |xxxxxxxxxxxxx |xxxxxxxxxxxxx |xxxxxxxxxxxxx |xxxxxxxxxxxxx |       800953 |       800953 |       800953 |xxxxxxxxxxxxx |xxxxxxxxxxxxx |xxxxxxxxxxxxx |xxxxxxxxxxxxx |      1694886 |      1694886 |      1694886 |xxxxxxxxxxxxx |xxxxxxxxxxxxx |xxxxxxxxxxxxx |xxxxxxxxxxxxx |      3613760 |      3613760 |      3613760 |xxxxxxxxxxxxx |xxxxxxxxxxxxx |xxxxxxxxxxxxx |xxxxxxxxxxxxx |      7713055 |      7713055 |      7713055 |xxxxxxxxxxxxx |xxxxxxxxxxxxx |xxxxxxxxxxxxx |xxxxxxxxxxxxx |     16176851 |     16176851 |     16176851 |xxxxxxxxxxxxx |xxxxxxxxxxxxx |xxxxxxxxxxxxx |xxxxxxxxxxxxx |     34141410 |     34141410 |     34141410 |xxxxxxxxxxxxx |xxxxxxxxxxxxx |xxxxxxxxxxxxx |xxxxxxxxxxxxx |     72196352 |     72196352 |     72196352 |xxxxxxxxxxxxx |xxxxxxxxxxxxx |xxxxxxxxxxxxx |xxxxxxxxxxxxx |    150406345 |    150406345 |    150406345 |xxxxxxxxxxxxx |xxxxxxxxxxxxx |xxxxxxxxxxxxx |xxxxxxxxxxxxx |    315075435 |    315075435 |    315075435 |
bpred_bimod.addr_hits                       140585 |       140592 |       140593 |xxxxxxxxxxxxx |xxxxxxxxxxxxx |xxxxxxxxxxxxx |xxxxxxxxxxxxx |       303638 |       303645 |       303648 |xxxxxxxxxxxxx |xxxxxxxxxxxxx |xxxxxxxxxxxxx |xxxxxxxxxxxxx |       657526 |       657532 |       657532 |xxxxxxxxxxxxx |xxxxxxxxxxxxx |xxxxxxxxxxxxx |xxxxxxxxxxxxx |      1383814 |      1383822 |      1383823 |xxxxxxxxxxxxx |xxxxxxxxxxxxx |xxxxxxxxxxxxx |xxxxxxxxxxxxx |      2946515 |      2946523 |      2946524 |xxxxxxxxxxxxx |xxxxxxxxxxxxx |xxxxxxxxxxxxx |xxxxxxxxxxxxx |      6312584 |      6312593 |      6312593 |xxxxxxxxxxxxx |xxxxxxxxxxxxx |xxxxxxxxxxxxx |xxxxxxxxxxxxx |     13164244 |     13164253 |     13164253 |xxxxxxxxxxxxx |xxxxxxxxxxxxx |xxxxxxxxxxxxx |xxxxxxxxxxxxx |     27787100 |     27787109 |     27787109 |xxxxxxxxxxxxx |xxxxxxxxxxxxx |xxxxxxxxxxxxx |xxxxxxxxxxxxx |     58936482 |     58936490 |     58936490 |xxxxxxxxxxxxx |xxxxxxxxxxxxx |xxxxxxxxxxxxx |xxxxxxxxxxxxx |    122213641 |    122213649 |    122213649 |xxxxxxxxxxxxx |xxxxxxxxxxxxx |xxxxxxxxxxxxx |xxxxxxxxxxxxx |    256062949 |    256062957 |    256062957 |
bpred_bimod.dir_hits                        140705 |       140712 |       140712 |xxxxxxxxxxxxx |xxxxxxxxxxxxx |xxxxxxxxxxxxx |xxxxxxxxxxxxx |       303762 |       303769 |       303771 |xxxxxxxxxxxxx |xxxxxxxxxxxxx |xxxxxxxxxxxxx |xxxxxxxxxxxxx |       657655 |       657657 |       657655 |xxxxxxxxxxxxx |xxxxxxxxxxxxx |xxxxxxxxxxxxx |xxxxxxxxxxxxx |      1383938 |      1383945 |      1383945 |xxxxxxxxxxxxx |xxxxxxxxxxxxx |xxxxxxxxxxxxx |xxxxxxxxxxxxx |      2946640 |      2946647 |      2946647 |xxxxxxxxxxxxx |xxxxxxxxxxxxx |xxxxxxxxxxxxx |xxxxxxxxxxxxx |      6312709 |      6312717 |      6312716 |xxxxxxxxxxxxx |xxxxxxxxxxxxx |xxxxxxxxxxxxx |xxxxxxxxxxxxx |     13164368 |     13164376 |     13164375 |xxxxxxxxxxxxx |xxxxxxxxxxxxx |xxxxxxxxxxxxx |xxxxxxxxxxxxx |     27787226 |     27787234 |     27787233 |xxxxxxxxxxxxx |xxxxxxxxxxxxx |xxxxxxxxxxxxx |xxxxxxxxxxxxx |     58936620 |     58936626 |     58936625 |xxxxxxxxxxxxx |xxxxxxxxxxxxx |xxxxxxxxxxxxx |xxxxxxxxxxxxx |    122213778 |    122213784 |    122213783 |xxxxxxxxxxxxx |xxxxxxxxxxxxx |xxxxxxxxxxxxx |xxxxxxxxxxxxx |    256063088 |    256063094 |    256063093 |
bpred_bimod.misses                           31082 |        31075 |        31075 |xxxxxxxxxxxxx |xxxxxxxxxxxxx |xxxxxxxxxxxxx |xxxxxxxxxxxxx |        67205 |        67198 |        67196 |xxxxxxxxxxxxx |xxxxxxxxxxxxx |xxxxxxxxxxxxx |xxxxxxxxxxxxx |       143298 |       143296 |       143298 |xxxxxxxxxxxxx |xxxxxxxxxxxxx |xxxxxxxxxxxxx |xxxxxxxxxxxxx |       310948 |       310941 |       310941 |xxxxxxxxxxxxx |xxxxxxxxxxxxx |xxxxxxxxxxxxx |xxxxxxxxxxxxx |       667120 |       667113 |       667113 |xxxxxxxxxxxxx |xxxxxxxxxxxxx |xxxxxxxxxxxxx |xxxxxxxxxxxxx |      1400346 |      1400338 |      1400339 |xxxxxxxxxxxxx |xxxxxxxxxxxxx |xxxxxxxxxxxxx |xxxxxxxxxxxxx |      3012483 |      3012475 |      3012476 |xxxxxxxxxxxxx |xxxxxxxxxxxxx |xxxxxxxxxxxxx |xxxxxxxxxxxxx |      6354184 |      6354176 |      6354177 |xxxxxxxxxxxxx |xxxxxxxxxxxxx |xxxxxxxxxxxxx |xxxxxxxxxxxxx |     13259732 |     13259726 |     13259727 |xxxxxxxxxxxxx |xxxxxxxxxxxxx |xxxxxxxxxxxxx |xxxxxxxxxxxxx |     28192567 |     28192561 |     28192562 |xxxxxxxxxxxxx |xxxxxxxxxxxxx |xxxxxxxxxxxxx |xxxxxxxxxxxxx |     59012347 |     59012341 |     59012342 |
bpred_bimod.jr_hits                           4157 |         4157 |         4157 |xxxxxxxxxxxxx |xxxxxxxxxxxxx |xxxxxxxxxxxxx |xxxxxxxxxxxxx |         8261 |         8261 |         8261 |xxxxxxxxxxxxx |xxxxxxxxxxxxx |xxxxxxxxxxxxx |xxxxxxxxxxxxx |        16453 |        16453 |        16453 |xxxxxxxxxxxxx |xxxxxxxxxxxxx |xxxxxxxxxxxxx |xxxxxxxxxxxxx |        32837 |        32837 |        32837 |xxxxxxxxxxxxx |xxxxxxxxxxxxx |xxxxxxxxxxxxx |xxxxxxxxxxxxx |        65605 |        65605 |        65605 |xxxxxxxxxxxxx |xxxxxxxxxxxxx |xxxxxxxxxxxxx |xxxxxxxxxxxxx |       131141 |       131141 |       131141 |xxxxxxxxxxxxx |xxxxxxxxxxxxx |xxxxxxxxxxxxx |xxxxxxxxxxxxx |       262213 |       262213 |       262213 |xxxxxxxxxxxxx |xxxxxxxxxxxxx |xxxxxxxxxxxxx |xxxxxxxxxxxxx |       524357 |       524357 |       524357 |xxxxxxxxxxxxx |xxxxxxxxxxxxx |xxxxxxxxxxxxx |xxxxxxxxxxxxx |      1048648 |      1048648 |      1048648 |xxxxxxxxxxxxx |xxxxxxxxxxxxx |xxxxxxxxxxxxx |xxxxxxxxxxxxx |      2097224 |      2097224 |      2097224 |xxxxxxxxxxxxx |xxxxxxxxxxxxx |xxxxxxxxxxxxx |xxxxxxxxxxxxx |      4194376 |      4194376 |      4194376 |
bpred_bimod.jr_seen                           4157 |         4157 |         4157 |xxxxxxxxxxxxx |xxxxxxxxxxxxx |xxxxxxxxxxxxx |xxxxxxxxxxxxx |         8262 |         8262 |         8262 |xxxxxxxxxxxxx |xxxxxxxxxxxxx |xxxxxxxxxxxxx |xxxxxxxxxxxxx |        16454 |        16454 |        16454 |xxxxxxxxxxxxx |xxxxxxxxxxxxx |xxxxxxxxxxxxx |xxxxxxxxxxxxx |        32838 |        32838 |        32838 |xxxxxxxxxxxxx |xxxxxxxxxxxxx |xxxxxxxxxxxxx |xxxxxxxxxxxxx |        65606 |        65606 |        65606 |xxxxxxxxxxxxx |xxxxxxxxxxxxx |xxxxxxxxxxxxx |xxxxxxxxxxxxx |       131142 |       131142 |       131142 |xxxxxxxxxxxxx |xxxxxxxxxxxxx |xxxxxxxxxxxxx |xxxxxxxxxxxxx |       262214 |       262214 |       262214 |xxxxxxxxxxxxx |xxxxxxxxxxxxx |xxxxxxxxxxxxx |xxxxxxxxxxxxx |       524358 |       524358 |       524358 |xxxxxxxxxxxxx |xxxxxxxxxxxxx |xxxxxxxxxxxxx |xxxxxxxxxxxxx |      1048649 |      1048649 |      1048649 |xxxxxxxxxxxxx |xxxxxxxxxxxxx |xxxxxxxxxxxxx |xxxxxxxxxxxxx |      2097225 |      2097225 |      2097225 |xxxxxxxxxxxxx |xxxxxxxxxxxxx |xxxxxxxxxxxxx |xxxxxxxxxxxxx |      4194377 |      4194377 |      4194377 |
bpred_bimod.jr_non_ras_hits.PP                   0 |            0 |            0 |xxxxxxxxxxxxx |xxxxxxxxxxxxx |xxxxxxxxxxxxx |xxxxxxxxxxxxx |            0 |            0 |            0 |xxxxxxxxxxxxx |xxxxxxxxxxxxx |xxxxxxxxxxxxx |xxxxxxxxxxxxx |            0 |            0 |            0 |xxxxxxxxxxxxx |xxxxxxxxxxxxx |xxxxxxxxxxxxx |xxxxxxxxxxxxx |            0 |            0 |            0 |xxxxxxxxxxxxx |xxxxxxxxxxxxx |xxxxxxxxxxxxx |xxxxxxxxxxxxx |            0 |            0 |            0 |xxxxxxxxxxxxx |xxxxxxxxxxxxx |xxxxxxxxxxxxx |xxxxxxxxxxxxx |            0 |            0 |            0 |xxxxxxxxxxxxx |xxxxxxxxxxxxx |xxxxxxxxxxxxx |xxxxxxxxxxxxx |            0 |            0 |            0 |xxxxxxxxxxxxx |xxxxxxxxxxxxx |xxxxxxxxxxxxx |xxxxxxxxxxxxx |            0 |            0 |            0 |xxxxxxxxxxxxx |xxxxxxxxxxxxx |xxxxxxxxxxxxx |xxxxxxxxxxxxx |            0 |            0 |            0 |xxxxxxxxxxxxx |xxxxxxxxxxxxx |xxxxxxxxxxxxx |xxxxxxxxxxxxx |            0 |            0 |            0 |xxxxxxxxxxxxx |xxxxxxxxxxxxx |xxxxxxxxxxxxx |xxxxxxxxxxxxx |            0 |            0 |            0 |
bpred_bimod.jr_non_ras_seen.PP                   0 |            0 |            0 |xxxxxxxxxxxxx |xxxxxxxxxxxxx |xxxxxxxxxxxxx |xxxxxxxxxxxxx |            0 |            0 |            0 |xxxxxxxxxxxxx |xxxxxxxxxxxxx |xxxxxxxxxxxxx |xxxxxxxxxxxxx |            0 |            0 |            0 |xxxxxxxxxxxxx |xxxxxxxxxxxxx |xxxxxxxxxxxxx |xxxxxxxxxxxxx |            0 |            0 |            0 |xxxxxxxxxxxxx |xxxxxxxxxxxxx |xxxxxxxxxxxxx |xxxxxxxxxxxxx |            0 |            0 |            0 |xxxxxxxxxxxxx |xxxxxxxxxxxxx |xxxxxxxxxxxxx |xxxxxxxxxxxxx |            0 |            0 |            0 |xxxxxxxxxxxxx |xxxxxxxxxxxxx |xxxxxxxxxxxxx |xxxxxxxxxxxxx |            0 |            0 |            0 |xxxxxxxxxxxxx |xxxxxxxxxxxxx |xxxxxxxxxxxxx |xxxxxxxxxxxxx |            0 |            0 |            0 |xxxxxxxxxxxxx |xxxxxxxxxxxxx |xxxxxxxxxxxxx |xxxxxxxxxxxxx |            1 |            1 |            1 |xxxxxxxxxxxxx |xxxxxxxxxxxxx |xxxxxxxxxxxxx |xxxxxxxxxxxxx |            1 |            1 |            1 |xxxxxxxxxxxxx |xxxxxxxxxxxxx |xxxxxxxxxxxxx |xxxxxxxxxxxxx |            1 |            1 |            1 |
bpred_bimod.bpred_addr_rate                 0.8184 |       0.8184 |       0.8184 |xxxxxxxxxxxxx |xxxxxxxxxxxxx |xxxxxxxxxxxxx |xxxxxxxxxxxxx |       0.8185 |       0.8185 |       0.8185 |xxxxxxxxxxxxx |xxxxxxxxxxxxx |xxxxxxxxxxxxx |xxxxxxxxxxxxx |       0.8209 |       0.8209 |       0.8209 |xxxxxxxxxxxxx |xxxxxxxxxxxxx |xxxxxxxxxxxxx |xxxxxxxxxxxxx |       0.8165 |       0.8165 |       0.8165 |xxxxxxxxxxxxx |xxxxxxxxxxxxx |xxxxxxxxxxxxx |xxxxxxxxxxxxx |       0.8154 |       0.8154 |       0.8154 |xxxxxxxxxxxxx |xxxxxxxxxxxxx |xxxxxxxxxxxxx |xxxxxxxxxxxxx |       0.8184 |       0.8184 |       0.8184 |xxxxxxxxxxxxx |xxxxxxxxxxxxx |xxxxxxxxxxxxx |xxxxxxxxxxxxx |       0.8138 |       0.8138 |       0.8138 |xxxxxxxxxxxxx |xxxxxxxxxxxxx |xxxxxxxxxxxxx |xxxxxxxxxxxxx |       0.8139 |       0.8139 |       0.8139 |xxxxxxxxxxxxx |xxxxxxxxxxxxx |xxxxxxxxxxxxx |xxxxxxxxxxxxx |       0.8163 |       0.8163 |       0.8163 |xxxxxxxxxxxxx |xxxxxxxxxxxxx |xxxxxxxxxxxxx |xxxxxxxxxxxxx |       0.8126 |       0.8126 |       0.8126 |xxxxxxxxxxxxx |xxxxxxxxxxxxx |xxxxxxxxxxxxx |xxxxxxxxxxxxx |       0.8127 |       0.8127 |       0.8127 |
bpred_bimod.bpred_dir_rate                  0.8191 |       0.8191 |       0.8191 |xxxxxxxxxxxxx |xxxxxxxxxxxxx |xxxxxxxxxxxxx |xxxxxxxxxxxxx |       0.8188 |       0.8189 |       0.8189 |xxxxxxxxxxxxx |xxxxxxxxxxxxx |xxxxxxxxxxxxx |xxxxxxxxxxxxx |       0.8211 |       0.8211 |       0.8211 |xxxxxxxxxxxxx |xxxxxxxxxxxxx |xxxxxxxxxxxxx |xxxxxxxxxxxxx |       0.8165 |       0.8165 |       0.8165 |xxxxxxxxxxxxx |xxxxxxxxxxxxx |xxxxxxxxxxxxx |xxxxxxxxxxxxx |       0.8154 |       0.8154 |       0.8154 |xxxxxxxxxxxxx |xxxxxxxxxxxxx |xxxxxxxxxxxxx |xxxxxxxxxxxxx |       0.8184 |       0.8184 |       0.8184 |xxxxxxxxxxxxx |xxxxxxxxxxxxx |xxxxxxxxxxxxx |xxxxxxxxxxxxx |       0.8138 |       0.8138 |       0.8138 |xxxxxxxxxxxxx |xxxxxxxxxxxxx |xxxxxxxxxxxxx |xxxxxxxxxxxxx |       0.8139 |       0.8139 |       0.8139 |xxxxxxxxxxxxx |xxxxxxxxxxxxx |xxxxxxxxxxxxx |xxxxxxxxxxxxx |       0.8163 |       0.8163 |       0.8163 |xxxxxxxxxxxxx |xxxxxxxxxxxxx |xxxxxxxxxxxxx |xxxxxxxxxxxxx |       0.8126 |       0.8126 |       0.8126 |xxxxxxxxxxxxx |xxxxxxxxxxxxx |xxxxxxxxxxxxx |xxxxxxxxxxxxx |       0.8127 |       0.8127 |       0.8127 |
bpred_bimod.bpred_jr_rate                   1.0000 |       1.0000 |       1.0000 |xxxxxxxxxxxxx |xxxxxxxxxxxxx |xxxxxxxxxxxxx |xxxxxxxxxxxxx |       0.9999 |       0.9999 |       0.9999 |xxxxxxxxxxxxx |xxxxxxxxxxxxx |xxxxxxxxxxxxx |xxxxxxxxxxxxx |       0.9999 |       0.9999 |       0.9999 |xxxxxxxxxxxxx |xxxxxxxxxxxxx |xxxxxxxxxxxxx |xxxxxxxxxxxxx |       1.0000 |       1.0000 |       1.0000 |xxxxxxxxxxxxx |xxxxxxxxxxxxx |xxxxxxxxxxxxx |xxxxxxxxxxxxx |       1.0000 |       1.0000 |       1.0000 |xxxxxxxxxxxxx |xxxxxxxxxxxxx |xxxxxxxxxxxxx |xxxxxxxxxxxxx |       1.0000 |       1.0000 |       1.0000 |xxxxxxxxxxxxx |xxxxxxxxxxxxx |xxxxxxxxxxxxx |xxxxxxxxxxxxx |       1.0000 |       1.0000 |       1.0000 |xxxxxxxxxxxxx |xxxxxxxxxxxxx |xxxxxxxxxxxxx |xxxxxxxxxxxxx |       1.0000 |       1.0000 |       1.0000 |xxxxxxxxxxxxx |xxxxxxxxxxxxx |xxxxxxxxxxxxx |xxxxxxxxxxxxx |       1.0000 |       1.0000 |       1.0000 |xxxxxxxxxxxxx |xxxxxxxxxxxxx |xxxxxxxxxxxxx |xxxxxxxxxxxxx |       1.0000 |       1.0000 |       1.0000 |xxxxxxxxxxxxx |xxxxxxxxxxxxx |xxxxxxxxxxxxx |xxxxxxxxxxxxx |       1.0000 |       1.0000 |       1.0000 |
bpred_bimod.bpred_jr_non_ras_rate.PP       <error: |      <error: |      <error: |xxxxxxxxxxxxx |xxxxxxxxxxxxx |xxxxxxxxxxxxx |xxxxxxxxxxxxx |      <error: |      <error: |      <error: |xxxxxxxxxxxxx |xxxxxxxxxxxxx |xxxxxxxxxxxxx |xxxxxxxxxxxxx |      <error: |      <error: |      <error: |xxxxxxxxxxxxx |xxxxxxxxxxxxx |xxxxxxxxxxxxx |xxxxxxxxxxxxx |      <error: |      <error: |      <error: |xxxxxxxxxxxxx |xxxxxxxxxxxxx |xxxxxxxxxxxxx |xxxxxxxxxxxxx |      <error: |      <error: |      <error: |xxxxxxxxxxxxx |xxxxxxxxxxxxx |xxxxxxxxxxxxx |xxxxxxxxxxxxx |      <error: |      <error: |      <error: |xxxxxxxxxxxxx |xxxxxxxxxxxxx |xxxxxxxxxxxxx |xxxxxxxxxxxxx |      <error: |      <error: |      <error: |xxxxxxxxxxxxx |xxxxxxxxxxxxx |xxxxxxxxxxxxx |xxxxxxxxxxxxx |      <error: |      <error: |      <error: |xxxxxxxxxxxxx |xxxxxxxxxxxxx |xxxxxxxxxxxxx |xxxxxxxxxxxxx |       0.0000 |       0.0000 |       0.0000 |xxxxxxxxxxxxx |xxxxxxxxxxxxx |xxxxxxxxxxxxx |xxxxxxxxxxxxx |       0.0000 |       0.0000 |       0.0000 |xxxxxxxxxxxxx |xxxxxxxxxxxxx |xxxxxxxxxxxxx |xxxxxxxxxxxxx |       0.0000 |       0.0000 |       0.0000 |
bpred_bimod.retstack_pushes                   4159 |         4159 |         4159 |xxxxxxxxxxxxx |xxxxxxxxxxxxx |xxxxxxxxxxxxx |xxxxxxxxxxxxx |         8264 |         8264 |         8264 |xxxxxxxxxxxxx |xxxxxxxxxxxxx |xxxxxxxxxxxxx |xxxxxxxxxxxxx |        16456 |        16456 |        16456 |xxxxxxxxxxxxx |xxxxxxxxxxxxx |xxxxxxxxxxxxx |xxxxxxxxxxxxx |        32840 |        32840 |        32840 |xxxxxxxxxxxxx |xxxxxxxxxxxxx |xxxxxxxxxxxxx |xxxxxxxxxxxxx |        65608 |        65608 |        65608 |xxxxxxxxxxxxx |xxxxxxxxxxxxx |xxxxxxxxxxxxx |xxxxxxxxxxxxx |       131144 |       131144 |       131144 |xxxxxxxxxxxxx |xxxxxxxxxxxxx |xxxxxxxxxxxxx |xxxxxxxxxxxxx |       262216 |       262216 |       262216 |xxxxxxxxxxxxx |xxxxxxxxxxxxx |xxxxxxxxxxxxx |xxxxxxxxxxxxx |       524360 |       524360 |       524360 |xxxxxxxxxxxxx |xxxxxxxxxxxxx |xxxxxxxxxxxxx |xxxxxxxxxxxxx |      1048650 |      1048650 |      1048650 |xxxxxxxxxxxxx |xxxxxxxxxxxxx |xxxxxxxxxxxxx |xxxxxxxxxxxxx |      2097226 |      2097226 |      2097226 |xxxxxxxxxxxxx |xxxxxxxxxxxxx |xxxxxxxxxxxxx |xxxxxxxxxxxxx |      4194378 |      4194378 |      4194378 |
bpred_bimod.retstack_pops                     4157 |         4157 |         4157 |xxxxxxxxxxxxx |xxxxxxxxxxxxx |xxxxxxxxxxxxx |xxxxxxxxxxxxx |         8262 |         8262 |         8262 |xxxxxxxxxxxxx |xxxxxxxxxxxxx |xxxxxxxxxxxxx |xxxxxxxxxxxxx |        16454 |        16454 |        16454 |xxxxxxxxxxxxx |xxxxxxxxxxxxx |xxxxxxxxxxxxx |xxxxxxxxxxxxx |        32838 |        32838 |        32838 |xxxxxxxxxxxxx |xxxxxxxxxxxxx |xxxxxxxxxxxxx |xxxxxxxxxxxxx |        65606 |        65606 |        65606 |xxxxxxxxxxxxx |xxxxxxxxxxxxx |xxxxxxxxxxxxx |xxxxxxxxxxxxx |       131142 |       131142 |       131142 |xxxxxxxxxxxxx |xxxxxxxxxxxxx |xxxxxxxxxxxxx |xxxxxxxxxxxxx |       262214 |       262214 |       262214 |xxxxxxxxxxxxx |xxxxxxxxxxxxx |xxxxxxxxxxxxx |xxxxxxxxxxxxx |       524358 |       524358 |       524358 |xxxxxxxxxxxxx |xxxxxxxxxxxxx |xxxxxxxxxxxxx |xxxxxxxxxxxxx |      1048648 |      1048648 |      1048648 |xxxxxxxxxxxxx |xxxxxxxxxxxxx |xxxxxxxxxxxxx |xxxxxxxxxxxxx |      2097224 |      2097224 |      2097224 |xxxxxxxxxxxxx |xxxxxxxxxxxxx |xxxxxxxxxxxxx |xxxxxxxxxxxxx |      4194376 |      4194376 |      4194376 |
bpred_bimod.used_ras.PP                       4157 |         4157 |         4157 |xxxxxxxxxxxxx |xxxxxxxxxxxxx |xxxxxxxxxxxxx |xxxxxxxxxxxxx |         8262 |         8262 |         8262 |xxxxxxxxxxxxx |xxxxxxxxxxxxx |xxxxxxxxxxxxx |xxxxxxxxxxxxx |        16454 |        16454 |        16454 |xxxxxxxxxxxxx |xxxxxxxxxxxxx |xxxxxxxxxxxxx |xxxxxxxxxxxxx |        32838 |        32838 |        32838 |xxxxxxxxxxxxx |xxxxxxxxxxxxx |xxxxxxxxxxxxx |xxxxxxxxxxxxx |        65606 |        65606 |        65606 |xxxxxxxxxxxxx |xxxxxxxxxxxxx |xxxxxxxxxxxxx |xxxxxxxxxxxxx |       131142 |       131142 |       131142 |xxxxxxxxxxxxx |xxxxxxxxxxxxx |xxxxxxxxxxxxx |xxxxxxxxxxxxx |       262214 |       262214 |       262214 |xxxxxxxxxxxxx |xxxxxxxxxxxxx |xxxxxxxxxxxxx |xxxxxxxxxxxxx |       524358 |       524358 |       524358 |xxxxxxxxxxxxx |xxxxxxxxxxxxx |xxxxxxxxxxxxx |xxxxxxxxxxxxx |      1048648 |      1048648 |      1048648 |xxxxxxxxxxxxx |xxxxxxxxxxxxx |xxxxxxxxxxxxx |xxxxxxxxxxxxx |      2097224 |      2097224 |      2097224 |xxxxxxxxxxxxx |xxxxxxxxxxxxx |xxxxxxxxxxxxx |xxxxxxxxxxxxx |      4194376 |      4194376 |      4194376 |
bpred_bimod.ras_hits.PP                       4157 |         4157 |         4157 |xxxxxxxxxxxxx |xxxxxxxxxxxxx |xxxxxxxxxxxxx |xxxxxxxxxxxxx |         8261 |         8261 |         8261 |xxxxxxxxxxxxx |xxxxxxxxxxxxx |xxxxxxxxxxxxx |xxxxxxxxxxxxx |        16453 |        16453 |        16453 |xxxxxxxxxxxxx |xxxxxxxxxxxxx |xxxxxxxxxxxxx |xxxxxxxxxxxxx |        32837 |        32837 |        32837 |xxxxxxxxxxxxx |xxxxxxxxxxxxx |xxxxxxxxxxxxx |xxxxxxxxxxxxx |        65605 |        65605 |        65605 |xxxxxxxxxxxxx |xxxxxxxxxxxxx |xxxxxxxxxxxxx |xxxxxxxxxxxxx |       131141 |       131141 |       131141 |xxxxxxxxxxxxx |xxxxxxxxxxxxx |xxxxxxxxxxxxx |xxxxxxxxxxxxx |       262213 |       262213 |       262213 |xxxxxxxxxxxxx |xxxxxxxxxxxxx |xxxxxxxxxxxxx |xxxxxxxxxxxxx |       524357 |       524357 |       524357 |xxxxxxxxxxxxx |xxxxxxxxxxxxx |xxxxxxxxxxxxx |xxxxxxxxxxxxx |      1048648 |      1048648 |      1048648 |xxxxxxxxxxxxx |xxxxxxxxxxxxx |xxxxxxxxxxxxx |xxxxxxxxxxxxx |      2097224 |      2097224 |      2097224 |xxxxxxxxxxxxx |xxxxxxxxxxxxx |xxxxxxxxxxxxx |xxxxxxxxxxxxx |      4194376 |      4194376 |      4194376 |
bpred_bimod.ras_rate.PP                     1.0000 |       1.0000 |       1.0000 |xxxxxxxxxxxxx |xxxxxxxxxxxxx |xxxxxxxxxxxxx |xxxxxxxxxxxxx |       0.9999 |       0.9999 |       0.9999 |xxxxxxxxxxxxx |xxxxxxxxxxxxx |xxxxxxxxxxxxx |xxxxxxxxxxxxx |       0.9999 |       0.9999 |       0.9999 |xxxxxxxxxxxxx |xxxxxxxxxxxxx |xxxxxxxxxxxxx |xxxxxxxxxxxxx |       1.0000 |       1.0000 |       1.0000 |xxxxxxxxxxxxx |xxxxxxxxxxxxx |xxxxxxxxxxxxx |xxxxxxxxxxxxx |       1.0000 |       1.0000 |       1.0000 |xxxxxxxxxxxxx |xxxxxxxxxxxxx |xxxxxxxxxxxxx |xxxxxxxxxxxxx |       1.0000 |       1.0000 |       1.0000 |xxxxxxxxxxxxx |xxxxxxxxxxxxx |xxxxxxxxxxxxx |xxxxxxxxxxxxx |       1.0000 |       1.0000 |       1.0000 |xxxxxxxxxxxxx |xxxxxxxxxxxxx |xxxxxxxxxxxxx |xxxxxxxxxxxxx |       1.0000 |       1.0000 |       1.0000 |xxxxxxxxxxxxx |xxxxxxxxxxxxx |xxxxxxxxxxxxx |xxxxxxxxxxxxx |       1.0000 |       1.0000 |       1.0000 |xxxxxxxxxxxxx |xxxxxxxxxxxxx |xxxxxxxxxxxxx |xxxxxxxxxxxxx |       1.0000 |       1.0000 |       1.0000 |xxxxxxxxxxxxx |xxxxxxxxxxxxx |xxxxxxxxxxxxx |xxxxxxxxxxxxx |       1.0000 |       1.0000 |       1.0000 |
bpred_2lev.lookups                   xxxxxxxxxxxxx |xxxxxxxxxxxxx |xxxxxxxxxxxxx |       171787 |       171787 |       171787 |       171787 |xxxxxxxxxxxxx |xxxxxxxxxxxxx |xxxxxxxxxxxxx |       370967 |       370967 |       370967 |       370967 |xxxxxxxxxxxxx |xxxxxxxxxxxxx |xxxxxxxxxxxxx |       800953 |       800953 |       800953 |       800953 |xxxxxxxxxxxxx |xxxxxxxxxxxxx |xxxxxxxxxxxxx |      1694886 |      1694886 |      1694886 |      1694886 |xxxxxxxxxxxxx |xxxxxxxxxxxxx |xxxxxxxxxxxxx |      3613760 |      3613760 |      3613760 |      3613760 |xxxxxxxxxxxxx |xxxxxxxxxxxxx |xxxxxxxxxxxxx |      7713055 |      7713055 |      7713055 |      7713055 |xxxxxxxxxxxxx |xxxxxxxxxxxxx |xxxxxxxxxxxxx |     16176851 |     16176851 |     16176851 |     16176851 |xxxxxxxxxxxxx |xxxxxxxxxxxxx |xxxxxxxxxxxxx |     34141410 |     34141410 |     34141410 |     34141410 |xxxxxxxxxxxxx |xxxxxxxxxxxxx |xxxxxxxxxxxxx |     72196352 |     72196352 |     72196352 |     72196352 |xxxxxxxxxxxxx |xxxxxxxxxxxxx |xxxxxxxxxxxxx |    150406345 |    150406345 |    150406345 |    150406345 |xxxxxxxxxxxxx |xxxxxxxxxxxxx |xxxxxxxxxxxxx |    315075435 |    315075435 |    315075435 |    315075435 |
[...]
bpred_2lev.retstack_pops             xxxxxxxxxxxxx |xxxxxxxxxxxxx |xxxxxxxxxxxxx |         4157 |         4157 |         4157 |         4157 |xxxxxxxxxxxxx |xxxxxxxxxxxxx |xxxxxxxxxxxxx |         8262 |         8262 |         8262 |         8262 |xxxxxxxxxxxxx |xxxxxxxxxxxxx |xxxxxxxxxxxxx |        16454 |        16454 |        16454 |        16454 |xxxxxxxxxxxxx |xxxxxxxxxxxxx |xxxxxxxxxxxxx |        32838 |        32838 |        32838 |        32838 |xxxxxxxxxxxxx |xxxxxxxxxxxxx |xxxxxxxxxxxxx |        65606 |        65606 |        65606 |        65606 |xxxxxxxxxxxxx |xxxxxxxxxxxxx |xxxxxxxxxxxxx |       131142 |       131142 |       131142 |       131142 |xxxxxxxxxxxxx |xxxxxxxxxxxxx |xxxxxxxxxxxxx |       262214 |       262214 |       262214 |       262214 |xxxxxxxxxxxxx |xxxxxxxxxxxxx |xxxxxxxxxxxxx |       524358 |       524358 |       524358 |       524358 |xxxxxxxxxxxxx |xxxxxxxxxxxxx |xxxxxxxxxxxxx |      1048648 |      1048648 |      1048648 |      1048648 |xxxxxxxxxxxxx |xxxxxxxxxxxxx |xxxxxxxxxxxxx |      2097224 |      2097224 |      2097224 |      2097224 |xxxxxxxxxxxxx |xxxxxxxxxxxxx |xxxxxxxxxxxxx |      4194376 |      4194376 |      4194376 |      4194376 |
bpred_2lev.used_ras.PP               xxxxxxxxxxxxx |xxxxxxxxxxxxx |xxxxxxxxxxxxx |         4157 |         4157 |         4157 |         4157 |xxxxxxxxxxxxx |xxxxxxxxxxxxx |xxxxxxxxxxxxx |         8262 |         8262 |         8262 |         8262 |xxxxxxxxxxxxx |xxxxxxxxxxxxx |xxxxxxxxxxxxx |        16454 |        16454 |        16454 |        16454 |xxxxxxxxxxxxx |xxxxxxxxxxxxx |xxxxxxxxxxxxx |        32838 |        32838 |        32838 |        32838 |xxxxxxxxxxxxx |xxxxxxxxxxxxx |xxxxxxxxxxxxx |        65606 |        65606 |        65606 |        65606 |xxxxxxxxxxxxx |xxxxxxxxxxxxx |xxxxxxxxxxxxx |       131142 |       131142 |       131142 |       131142 |xxxxxxxxxxxxx |xxxxxxxxxxxxx |xxxxxxxxxxxxx |       262214 |       262214 |       262214 |       262214 |xxxxxxxxxxxxx |xxxxxxxxxxxxx |xxxxxxxxxxxxx |       524358 |       524358 |       524358 |       524358 |xxxxxxxxxxxxx |xxxxxxxxxxxxx |xxxxxxxxxxxxx |      1048648 |      1048648 |      1048648 |      1048648 |xxxxxxxxxxxxx |xxxxxxxxxxxxx |xxxxxxxxxxxxx |      2097224 |      2097224 |      2097224 |      2097224 |xxxxxxxxxxxxx |xxxxxxxxxxxxx |xxxxxxxxxxxxx |      4194376 |      4194376 |      4194376 |      4194376 |
bpred_2lev.ras_hits.PP               xxxxxxxxxxxxx |xxxxxxxxxxxxx |xxxxxxxxxxxxx |         4157 |         4157 |         4157 |         4157 |xxxxxxxxxxxxx |xxxxxxxxxxxxx |xxxxxxxxxxxxx |         8261 |         8261 |         8261 |         8261 |xxxxxxxxxxxxx |xxxxxxxxxxxxx |xxxxxxxxxxxxx |        16453 |        16453 |        16453 |        16453 |xxxxxxxxxxxxx |xxxxxxxxxxxxx |xxxxxxxxxxxxx |        32837 |        32837 |        32837 |        32837 |xxxxxxxxxxxxx |xxxxxxxxxxxxx |xxxxxxxxxxxxx |        65605 |        65605 |        65605 |        65605 |xxxxxxxxxxxxx |xxxxxxxxxxxxx |xxxxxxxxxxxxx |       131141 |       131141 |       131141 |       131141 |xxxxxxxxxxxxx |xxxxxxxxxxxxx |xxxxxxxxxxxxx |       262213 |       262213 |       262213 |       262213 |xxxxxxxxxxxxx |xxxxxxxxxxxxx |xxxxxxxxxxxxx |       524357 |       524357 |       524357 |       524357 |xxxxxxxxxxxxx |xxxxxxxxxxxxx |xxxxxxxxxxxxx |      1048648 |      1048648 |      1048648 |      1048648 |xxxxxxxxxxxxx |xxxxxxxxxxxxx |xxxxxxxxxxxxx |      2097224 |      2097224 |      2097224 |      2097224 |xxxxxxxxxxxxx |xxxxxxxxxxxxx |xxxxxxxxxxxxx |      4194376 |      4194376 |      4194376 |      4194376 |
bpred_2lev.ras_rate.PP               xxxxxxxxxxxxx |xxxxxxxxxxxxx |xxxxxxxxxxxxx |       1.0000 |       1.0000 |       1.0000 |       1.0000 |xxxxxxxxxxxxx |xxxxxxxxxxxxx |xxxxxxxxxxxxx |       0.9999 |       0.9999 |       0.9999 |       0.9999 |xxxxxxxxxxxxx |xxxxxxxxxxxxx |xxxxxxxxxxxxx |       0.9999 |       0.9999 |       0.9999 |       0.9999 |xxxxxxxxxxxxx |xxxxxxxxxxxxx |xxxxxxxxxxxxx |       1.0000 |       1.0000 |       1.0000 |       1.0000 |xxxxxxxxxxxxx |xxxxxxxxxxxxx |xxxxxxxxxxxxx |       1.0000 |       1.0000 |       1.0000 |       1.0000 |xxxxxxxxxxxxx |xxxxxxxxxxxxx |xxxxxxxxxxxxx |       1.0000 |       1.0000 |       1.0000 |       1.0000 |xxxxxxxxxxxxx |xxxxxxxxxxxxx |xxxxxxxxxxxxx |       1.0000 |       1.0000 |       1.0000 |       1.0000 |xxxxxxxxxxxxx |xxxxxxxxxxxxx |xxxxxxxxxxxxx |       1.0000 |       1.0000 |       1.0000 |       1.0000 |xxxxxxxxxxxxx |xxxxxxxxxxxxx |xxxxxxxxxxxxx |       1.0000 |       1.0000 |       1.0000 |       1.0000 |xxxxxxxxxxxxx |xxxxxxxxxxxxx |xxxxxxxxxxxxx |       1.0000 |       1.0000 |       1.0000 |       1.0000 |xxxxxxxxxxxxx |xxxxxxxxxxxxx |xxxxxxxxxxxxx |       1.0000 |       1.0000 |       1.0000 |       1.0000 |

Command list: 
	sslittle-na-sstrix-gcc -Wall -O3 -funroll-loops -finline-functions  -DRANDOM_SIZE=4096 -DOFFSET=7 -DSORT=memory_tuned_heapsort sorts/memory_tuned_heapsort1302783960.c simpleMain.c -o memory_tuned_heapsort1824171033
	sim-cache -cache:dl1 dl1:256:32:1:l -cache:dl2 dl2:131072:32:1:l -cache:il1 il1:256:32:1:l -cache:il2 dl2 memory_tuned_heapsort1824171033
	sim-cache -cache:dl1 dl1:256:32:1:l -cache:dl2 dl2:65536:32:1:l -cache:il1 il1:256:32:1:l -cache:il2 dl2 memory_tuned_heapsort1824171033
	sim-cache -cache:dl1 dl1:1:32:256:l -cache:dl2 dl2:1:32:131072:l -cache:il1 il1:1:32:256:l -cache:il2 dl2 memory_tuned_heapsort1824171033
	sim-cache -cache:dl1 dl1:1:32:256:l -cache:dl2 dl2:1:32:65536:l -cache:il1 il1:1:32:256:l -cache:il2 dl2 memory_tuned_heapsort1824171033
	sim-bpred -bpred bimod -bpred:bimod 512 memory_tuned_heapsort1824171033
	sim-bpred -bpred bimod -bpred:bimod 1024 memory_tuned_heapsort1824171033
	sim-bpred -bpred bimod -bpred:bimod 2048 memory_tuned_heapsort1824171033
	sim-bpred -bpred 2lev -bpred:2lev 1 512 10 1 memory_tuned_heapsort1824171033
	sim-bpred -bpred 2lev -bpred:2lev 1 1024 10 1 memory_tuned_heapsort1824171033
	sim-bpred -bpred 2lev -bpred:2lev 1 2048 10 1 memory_tuned_heapsort1824171033
	sim-bpred -bpred 2lev -bpred:2lev 1 4096 10 1 memory_tuned_heapsort1824171033
	sslittle-na-sstrix-gcc -Wall -O3 -funroll-loops -finline-functions  -DRANDOM_SIZE=8192 -DOFFSET=7 -DSORT=memory_tuned_heapsort sorts/memory_tuned_heapsort1302783960.c simpleMain.c -o memory_tuned_heapsort1824171033
	sim-cache -cache:dl1 dl1:256:32:1:l -cache:dl2 dl2:131072:32:1:l -cache:il1 il1:256:32:1:l -cache:il2 dl2 memory_tuned_heapsort1824171033
	sim-cache -cache:dl1 dl1:256:32:1:l -cache:dl2 dl2:65536:32:1:l -cache:il1 il1:256:32:1:l -cache:il2 dl2 memory_tuned_heapsort1824171033
	sim-cache -cache:dl1 dl1:1:32:256:l -cache:dl2 dl2:1:32:131072:l -cache:il1 il1:1:32:256:l -cache:il2 dl2 memory_tuned_heapsort1824171033
	sim-cache -cache:dl1 dl1:1:32:256:l -cache:dl2 dl2:1:32:65536:l -cache:il1 il1:1:32:256:l -cache:il2 dl2 memory_tuned_heapsort1824171033
	sim-bpred -bpred bimod -bpred:bimod 512 memory_tuned_heapsort1824171033
	sim-bpred -bpred bimod -bpred:bimod 1024 memory_tuned_heapsort1824171033
	sim-bpred -bpred bimod -bpred:bimod 2048 memory_tuned_heapsort1824171033
	sim-bpred -bpred 2lev -bpred:2lev 1 512 10 1 memory_tuned_heapsort1824171033
	sim-bpred -bpred 2lev -bpred:2lev 1 1024 10 1 memory_tuned_heapsort1824171033
	sim-bpred -bpred 2lev -bpred:2lev 1 2048 10 1 memory_tuned_heapsort1824171033
	sim-bpred -bpred 2lev -bpred:2lev 1 4096 10 1 memory_tuned_heapsort1824171033
	sslittle-na-sstrix-gcc -Wall -O3 -funroll-loops -finline-functions  -DRANDOM_SIZE=16384 -DOFFSET=7 -DSORT=memory_tuned_heapsort sorts/memory_tuned_heapsort1302783960.c simpleMain.c -o memory_tuned_heapsort1824171033
	sim-cache -cache:dl1 dl1:256:32:1:l -cache:dl2 dl2:131072:32:1:l -cache:il1 il1:256:32:1:l -cache:il2 dl2 memory_tuned_heapsort1824171033
	sim-cache -cache:dl1 dl1:256:32:1:l -cache:dl2 dl2:65536:32:1:l -cache:il1 il1:256:32:1:l -cache:il2 dl2 memory_tuned_heapsort1824171033
	sim-cache -cache:dl1 dl1:1:32:256:l -cache:dl2 dl2:1:32:131072:l -cache:il1 il1:1:32:256:l -cache:il2 dl2 memory_tuned_heapsort1824171033
	sim-cache -cache:dl1 dl1:1:32:256:l -cache:dl2 dl2:1:32:65536:l -cache:il1 il1:1:32:256:l -cache:il2 dl2 memory_tuned_heapsort1824171033
	sim-bpred -bpred bimod -bpred:bimod 512 memory_tuned_heapsort1824171033
	sim-bpred -bpred bimod -bpred:bimod 1024 memory_tuned_heapsort1824171033
	sim-bpred -bpred bimod -bpred:bimod 2048 memory_tuned_heapsort1824171033
	sim-bpred -bpred 2lev -bpred:2lev 1 512 10 1 memory_tuned_heapsort1824171033
	sim-bpred -bpred 2lev -bpred:2lev 1 1024 10 1 memory_tuned_heapsort1824171033
	sim-bpred -bpred 2lev -bpred:2lev 1 2048 10 1 memory_tuned_heapsort1824171033
	sim-bpred -bpred 2lev -bpred:2lev 1 4096 10 1 memory_tuned_heapsort1824171033
	sslittle-na-sstrix-gcc -Wall -O3 -funroll-loops -finline-functions  -DRANDOM_SIZE=32768 -DOFFSET=7 -DSORT=memory_tuned_heapsort sorts/memory_tuned_heapsort1302783960.c simpleMain.c -o memory_tuned_heapsort1824171033
	sim-cache -cache:dl1 dl1:256:32:1:l -cache:dl2 dl2:131072:32:1:l -cache:il1 il1:256:32:1:l -cache:il2 dl2 memory_tuned_heapsort1824171033
	sim-cache -cache:dl1 dl1:256:32:1:l -cache:dl2 dl2:65536:32:1:l -cache:il1 il1:256:32:1:l -cache:il2 dl2 memory_tuned_heapsort1824171033
	sim-cache -cache:dl1 dl1:1:32:256:l -cache:dl2 dl2:1:32:131072:l -cache:il1 il1:1:32:256:l -cache:il2 dl2 memory_tuned_heapsort1824171033
	sim-cache -cache:dl1 dl1:1:32:256:l -cache:dl2 dl2:1:32:65536:l -cache:il1 il1:1:32:256:l -cache:il2 dl2 memory_tuned_heapsort1824171033
	sim-bpred -bpred bimod -bpred:bimod 512 memory_tuned_heapsort1824171033
	sim-bpred -bpred bimod -bpred:bimod 1024 memory_tuned_heapsort1824171033
	sim-bpred -bpred bimod -bpred:bimod 2048 memory_tuned_heapsort1824171033
	sim-bpred -bpred 2lev -bpred:2lev 1 512 10 1 memory_tuned_heapsort1824171033
	sim-bpred -bpred 2lev -bpred:2lev 1 1024 10 1 memory_tuned_heapsort1824171033
	sim-bpred -bpred 2lev -bpred:2lev 1 2048 10 1 memory_tuned_heapsort1824171033
	sim-bpred -bpred 2lev -bpred:2lev 1 4096 10 1 memory_tuned_heapsort1824171033
	sslittle-na-sstrix-gcc -Wall -O3 -funroll-loops -finline-functions  -DRANDOM_SIZE=65536 -DOFFSET=7 -DSORT=memory_tuned_heapsort sorts/memory_tuned_heapsort1302783960.c simpleMain.c -o memory_tuned_heapsort1824171033
	sim-cache -cache:dl1 dl1:256:32:1:l -cache:dl2 dl2:131072:32:1:l -cache:il1 il1:256:32:1:l -cache:il2 dl2 memory_tuned_heapsort1824171033
	sim-cache -cache:dl1 dl1:256:32:1:l -cache:dl2 dl2:65536:32:1:l -cache:il1 il1:256:32:1:l -cache:il2 dl2 memory_tuned_heapsort1824171033
	sim-cache -cache:dl1 dl1:1:32:256:l -cache:dl2 dl2:1:32:131072:l -cache:il1 il1:1:32:256:l -cache:il2 dl2 memory_tuned_heapsort1824171033
	sim-cache -cache:dl1 dl1:1:32:256:l -cache:dl2 dl2:1:32:65536:l -cache:il1 il1:1:32:256:l -cache:il2 dl2 memory_tuned_heapsort1824171033
	sim-bpred -bpred bimod -bpred:bimod 512 memory_tuned_heapsort1824171033
	sim-bpred -bpred bimod -bpred:bimod 1024 memory_tuned_heapsort1824171033
	sim-bpred -bpred bimod -bpred:bimod 2048 memory_tuned_heapsort1824171033
	sim-bpred -bpred 2lev -bpred:2lev 1 512 10 1 memory_tuned_heapsort1824171033
	sim-bpred -bpred 2lev -bpred:2lev 1 1024 10 1 memory_tuned_heapsort1824171033
	sim-bpred -bpred 2lev -bpred:2lev 1 2048 10 1 memory_tuned_heapsort1824171033
	sim-bpred -bpred 2lev -bpred:2lev 1 4096 10 1 memory_tuned_heapsort1824171033
	sslittle-na-sstrix-gcc -Wall -O3 -funroll-loops -finline-functions  -DRANDOM_SIZE=131072 -DOFFSET=7 -DSORT=memory_tuned_heapsort sorts/memory_tuned_heapsort1302783960.c simpleMain.c -o memory_tuned_heapsort1824171033
	sim-cache -cache:dl1 dl1:256:32:1:l -cache:dl2 dl2:131072:32:1:l -cache:il1 il1:256:32:1:l -cache:il2 dl2 memory_tuned_heapsort1824171033
	sim-cache -cache:dl1 dl1:256:32:1:l -cache:dl2 dl2:65536:32:1:l -cache:il1 il1:256:32:1:l -cache:il2 dl2 memory_tuned_heapsort1824171033
	sim-cache -cache:dl1 dl1:1:32:256:l -cache:dl2 dl2:1:32:131072:l -cache:il1 il1:1:32:256:l -cache:il2 dl2 memory_tuned_heapsort1824171033
	sim-cache -cache:dl1 dl1:1:32:256:l -cache:dl2 dl2:1:32:65536:l -cache:il1 il1:1:32:256:l -cache:il2 dl2 memory_tuned_heapsort1824171033
	sim-bpred -bpred bimod -bpred:bimod 512 memory_tuned_heapsort1824171033
	sim-bpred -bpred bimod -bpred:bimod 1024 memory_tuned_heapsort1824171033
	sim-bpred -bpred bimod -bpred:bimod 2048 memory_tuned_heapsort1824171033
	sim-bpred -bpred 2lev -bpred:2lev 1 512 10 1 memory_tuned_heapsort1824171033
	sim-bpred -bpred 2lev -bpred:2lev 1 1024 10 1 memory_tuned_heapsort1824171033
	sim-bpred -bpred 2lev -bpred:2lev 1 2048 10 1 memory_tuned_heapsort1824171033
	sim-bpred -bpred 2lev -bpred:2lev 1 4096 10 1 memory_tuned_heapsort1824171033
	sslittle-na-sstrix-gcc -Wall -O3 -funroll-loops -finline-functions  -DRANDOM_SIZE=262144 -DOFFSET=7 -DSORT=memory_tuned_heapsort sorts/memory_tuned_heapsort1302783960.c simpleMain.c -o memory_tuned_heapsort1824171033
	sim-cache -cache:dl1 dl1:256:32:1:l -cache:dl2 dl2:131072:32:1:l -cache:il1 il1:256:32:1:l -cache:il2 dl2 memory_tuned_heapsort1824171033
	sim-cache -cache:dl1 dl1:256:32:1:l -cache:dl2 dl2:65536:32:1:l -cache:il1 il1:256:32:1:l -cache:il2 dl2 memory_tuned_heapsort1824171033
	sim-cache -cache:dl1 dl1:1:32:256:l -cache:dl2 dl2:1:32:131072:l -cache:il1 il1:1:32:256:l -cache:il2 dl2 memory_tuned_heapsort1824171033
	sim-cache -cache:dl1 dl1:1:32:256:l -cache:dl2 dl2:1:32:65536:l -cache:il1 il1:1:32:256:l -cache:il2 dl2 memory_tuned_heapsort1824171033
	sim-bpred -bpred bimod -bpred:bimod 512 memory_tuned_heapsort1824171033
	sim-bpred -bpred bimod -bpred:bimod 1024 memory_tuned_heapsort1824171033
	sim-bpred -bpred bimod -bpred:bimod 2048 memory_tuned_heapsort1824171033
	sim-bpred -bpred 2lev -bpred:2lev 1 512 10 1 memory_tuned_heapsort1824171033
	sim-bpred -bpred 2lev -bpred:2lev 1 1024 10 1 memory_tuned_heapsort1824171033
	sim-bpred -bpred 2lev -bpred:2lev 1 2048 10 1 memory_tuned_heapsort1824171033
	sim-bpred -bpred 2lev -bpred:2lev 1 4096 10 1 memory_tuned_heapsort1824171033
	sslittle-na-sstrix-gcc -Wall -O3 -funroll-loops -finline-functions  -DRANDOM_SIZE=524288 -DOFFSET=7 -DSORT=memory_tuned_heapsort sorts/memory_tuned_heapsort1302783960.c simpleMain.c -o memory_tuned_heapsort1824171033
	sim-cache -cache:dl1 dl1:256:32:1:l -cache:dl2 dl2:131072:32:1:l -cache:il1 il1:256:32:1:l -cache:il2 dl2 memory_tuned_heapsort1824171033
	sim-cache -cache:dl1 dl1:256:32:1:l -cache:dl2 dl2:65536:32:1:l -cache:il1 il1:256:32:1:l -cache:il2 dl2 memory_tuned_heapsort1824171033
	sim-cache -cache:dl1 dl1:1:32:256:l -cache:dl2 dl2:1:32:131072:l -cache:il1 il1:1:32:256:l -cache:il2 dl2 memory_tuned_heapsort1824171033
	sim-cache -cache:dl1 dl1:1:32:256:l -cache:dl2 dl2:1:32:65536:l -cache:il1 il1:1:32:256:l -cache:il2 dl2 memory_tuned_heapsort1824171033
	sim-bpred -bpred bimod -bpred:bimod 512 memory_tuned_heapsort1824171033
	sim-bpred -bpred bimod -bpred:bimod 1024 memory_tuned_heapsort1824171033
	sim-bpred -bpred bimod -bpred:bimod 2048 memory_tuned_heapsort1824171033
	sim-bpred -bpred 2lev -bpred:2lev 1 512 10 1 memory_tuned_heapsort1824171033
	sim-bpred -bpred 2lev -bpred:2lev 1 1024 10 1 memory_tuned_heapsort1824171033
	sim-bpred -bpred 2lev -bpred:2lev 1 2048 10 1 memory_tuned_heapsort1824171033
	sim-bpred -bpred 2lev -bpred:2lev 1 4096 10 1 memory_tuned_heapsort1824171033
	sslittle-na-sstrix-gcc -Wall -O3 -funroll-loops -finline-functions  -DRANDOM_SIZE=1048576 -DOFFSET=7 -DSORT=memory_tuned_heapsort sorts/memory_tuned_heapsort1302783960.c simpleMain.c -o memory_tuned_heapsort1824171033
	sim-cache -cache:dl1 dl1:256:32:1:l -cache:dl2 dl2:131072:32:1:l -cache:il1 il1:256:32:1:l -cache:il2 dl2 memory_tuned_heapsort1824171033
	sim-cache -cache:dl1 dl1:256:32:1:l -cache:dl2 dl2:65536:32:1:l -cache:il1 il1:256:32:1:l -cache:il2 dl2 memory_tuned_heapsort1824171033
	sim-cache -cache:dl1 dl1:1:32:256:l -cache:dl2 dl2:1:32:131072:l -cache:il1 il1:1:32:256:l -cache:il2 dl2 memory_tuned_heapsort1824171033
	sim-cache -cache:dl1 dl1:1:32:256:l -cache:dl2 dl2:1:32:65536:l -cache:il1 il1:1:32:256:l -cache:il2 dl2 memory_tuned_heapsort1824171033
	sim-bpred -bpred bimod -bpred:bimod 512 memory_tuned_heapsort1824171033
	sim-bpred -bpred bimod -bpred:bimod 1024 memory_tuned_heapsort1824171033
	sim-bpred -bpred bimod -bpred:bimod 2048 memory_tuned_heapsort1824171033
	sim-bpred -bpred 2lev -bpred:2lev 1 512 10 1 memory_tuned_heapsort1824171033
	sim-bpred -bpred 2lev -bpred:2lev 1 1024 10 1 memory_tuned_heapsort1824171033
	sim-bpred -bpred 2lev -bpred:2lev 1 2048 10 1 memory_tuned_heapsort1824171033
	sim-bpred -bpred 2lev -bpred:2lev 1 4096 10 1 memory_tuned_heapsort1824171033
	sslittle-na-sstrix-gcc -Wall -O3 -funroll-loops -finline-functions  -DRANDOM_SIZE=2097152 -DOFFSET=7 -DSORT=memory_tuned_heapsort sorts/memory_tuned_heapsort1302783960.c simpleMain.c -o memory_tuned_heapsort1824171033
	sim-cache -cache:dl1 dl1:256:32:1:l -cache:dl2 dl2:131072:32:1:l -cache:il1 il1:256:32:1:l -cache:il2 dl2 memory_tuned_heapsort1824171033
	sim-cache -cache:dl1 dl1:256:32:1:l -cache:dl2 dl2:65536:32:1:l -cache:il1 il1:256:32:1:l -cache:il2 dl2 memory_tuned_heapsort1824171033
	sim-cache -cache:dl1 dl1:1:32:256:l -cache:dl2 dl2:1:32:131072:l -cache:il1 il1:1:32:256:l -cache:il2 dl2 memory_tuned_heapsort1824171033
	sim-cache -cache:dl1 dl1:1:32:256:l -cache:dl2 dl2:1:32:65536:l -cache:il1 il1:1:32:256:l -cache:il2 dl2 memory_tuned_heapsort1824171033
	sim-bpred -bpred bimod -bpred:bimod 512 memory_tuned_heapsort1824171033
	sim-bpred -bpred bimod -bpred:bimod 1024 memory_tuned_heapsort1824171033
	sim-bpred -bpred bimod -bpred:bimod 2048 memory_tuned_heapsort1824171033
	sim-bpred -bpred 2lev -bpred:2lev 1 512 10 1 memory_tuned_heapsort1824171033
	sim-bpred -bpred 2lev -bpred:2lev 1 1024 10 1 memory_tuned_heapsort1824171033
	sim-bpred -bpred 2lev -bpred:2lev 1 2048 10 1 memory_tuned_heapsort1824171033
	sim-bpred -bpred 2lev -bpred:2lev 1 4096 10 1 memory_tuned_heapsort1824171033
	sslittle-na-sstrix-gcc -Wall -O3 -funroll-loops -finline-functions  -DRANDOM_SIZE=4194304 -DOFFSET=7 -DSORT=memory_tuned_heapsort sorts/memory_tuned_heapsort1302783960.c simpleMain.c -o memory_tuned_heapsort1824171033
	sim-cache -cache:dl1 dl1:256:32:1:l -cache:dl2 dl2:131072:32:1:l -cache:il1 il1:256:32:1:l -cache:il2 dl2 memory_tuned_heapsort1824171033
	sim-cache -cache:dl1 dl1:256:32:1:l -cache:dl2 dl2:65536:32:1:l -cache:il1 il1:256:32:1:l -cache:il2 dl2 memory_tuned_heapsort1824171033
	sim-cache -cache:dl1 dl1:1:32:256:l -cache:dl2 dl2:1:32:131072:l -cache:il1 il1:1:32:256:l -cache:il2 dl2 memory_tuned_heapsort1824171033
	sim-cache -cache:dl1 dl1:1:32:256:l -cache:dl2 dl2:1:32:65536:l -cache:il1 il1:1:32:256:l -cache:il2 dl2 memory_tuned_heapsort1824171033
	sim-bpred -bpred bimod -bpred:bimod 512 memory_tuned_heapsort1824171033
	sim-bpred -bpred bimod -bpred:bimod 1024 memory_tuned_heapsort1824171033
	sim-bpred -bpred bimod -bpred:bimod 2048 memory_tuned_heapsort1824171033
	sim-bpred -bpred 2lev -bpred:2lev 1 512 10 1 memory_tuned_heapsort1824171033
	sim-bpred -bpred 2lev -bpred:2lev 1 1024 10 1 memory_tuned_heapsort1824171033
	sim-bpred -bpred 2lev -bpred:2lev 1 2048 10 1 memory_tuned_heapsort1824171033
	sim-bpred -bpred 2lev -bpred:2lev 1 4096 10 1 memory_tuned_heapsort1824171033
