Wed Jun 22 03:00:43 2005
Run as: "./do_simple -c random.org1 -o 1 memory_tuned_heapsort"
-------------------------------------------------------------------------------------------------
sim-cache                                     4096 |         4096 |         4096 |         4096 |         8192 |         8192 |         8192 |         8192 |        16384 |        16384 |        16384 |        16384 |        32768 |        32768 |        32768 |        32768 |        65536 |        65536 |        65536 |        65536 |       131072 |       131072 |       131072 |       131072 |       262144 |       262144 |       262144 |       262144 |       524288 |       524288 |       524288 |       524288 |      1048576 |      1048576 |      1048576 |      1048576 |      2097152 |      2097152 |      2097152 |      2097152 |      4194304 |      4194304 |      4194304 |      4194304 |
-cache:dl1 dl1:256:32:1:l -cache:dl2 dl2:131072:32:1:l -cache:il1 il1:256:32:1:l -cache:il2 dl2
-cache:dl1 dl1:256:32:1:l -cache:dl2 dl2:65536:32:1:l -cache:il1 il1:256:32:1:l -cache:il2 dl2
-cache:dl1 dl1:1:32:256:l -cache:dl2 dl2:1:32:131072:l -cache:il1 il1:1:32:256:l -cache:il2 dl2
-cache:dl1 dl1:1:32:256:l -cache:dl2 dl2:1:32:65536:l -cache:il1 il1:1:32:256:l -cache:il2 dl2
-------------------------------------------------------------------------------------------------
sim_num_insn                               1016694 |      1016694 |      1016694 |      1016694 |      2186878 |      2186878 |      2186878 |      2186878 |      4731412 |      4731412 |      4731412 |      4731412 |     10003643 |     10003643 |     10003643 |     10003643 |     21295596 |     21295596 |     21295596 |     21295596 |     45463832 |     45463832 |     45463832 |     45463832 |     95383717 |     95383717 |     95383717 |     95383717 |    201148115 |    201148115 |    201148115 |    201148115 |    425211480 |    425211480 |    425211480 |    425211480 |    886160624 |    886160624 |    886160624 |    886160624 |   1855399330 |   1855399330 |   1855399330 |   1855399330 |
sim_num_refs                                279805 |       279805 |       279805 |       279805 |       599895 |       599895 |       599895 |       599895 |      1295364 |      1295364 |      1295364 |      1295364 |      2733963 |      2733963 |      2733963 |      2733963 |      5819712 |      5819712 |      5819712 |      5819712 |     12423377 |     12423377 |     12423377 |     12423377 |     26040797 |     26040797 |     26040797 |     26040797 |     54936198 |     54936198 |     54936198 |     54936198 |    116142771 |    116142771 |    116142771 |    116142771 |    241870516 |    241870516 |    241870516 |    241870516 |    506588400 |    506588400 |    506588400 |    506588400 |
sim_elapsed_time                                 1 |            1 |           10 |            5 |            1 |            1 |           15 |            7 |            1 |            1 |           25 |           13 |            2 |            3 |           45 |           24 |            6 |            6 |           84 |           43 |           12 |           12 |          156 |           74 |           25 |           26 |          269 |          106 |           54 |           54 |          376 |          138 |          113 |          114 |          443 |          204 |          237 |          236 |          579 |          338 |          498 |          497 |          865 |          624 |
sim_inst_rate                         1016694.0000 | 1016694.0000 |  101669.4000 |  203338.8000 | 2186878.0000 | 2186878.0000 |  145791.8667 |  312411.1429 | 4731412.0000 | 4731412.0000 |  189256.4800 |  363954.7692 | 5001821.5000 | 3334547.6667 |  222303.1778 |  416818.4583 | 3549266.0000 | 3549266.0000 |  253519.0000 |  495246.4186 | 3788652.6667 | 3788652.6667 |  291434.8205 |  614376.1081 | 3815348.6800 | 3668604.5000 |  354586.3086 |  899846.3868 | 3724965.0926 | 3724965.0926 |  534968.3910 | 1457595.0362 | 3762933.4513 | 3729925.2632 |  959845.3273 | 2084370.0000 | 3739074.3629 | 3754917.8983 | 1530501.9413 | 2621776.9941 | 3725701.4659 | 3733197.8471 | 2144970.3237 | 2973396.3622 |
il1.accesses                               1016694 |      1016694 |      1016694 |      1016694 |      2186878 |      2186878 |      2186878 |      2186878 |      4731412 |      4731412 |      4731412 |      4731412 |     10003643 |     10003643 |     10003643 |     10003643 |     21295596 |     21295596 |     21295596 |     21295596 |     45463832 |     45463832 |     45463832 |     45463832 |     95383717 |     95383717 |     95383717 |     95383717 |    201148115 |    201148115 |    201148115 |    201148115 |    425211480 |    425211480 |    425211480 |    425211480 |    886160624 |    886160624 |    886160624 |    886160624 |   1855399330 |   1855399330 |   1855399330 |   1855399330 |
il1.hits                                   1016166 |      1016166 |      1016254 |      1016254 |      2186310 |      2186310 |      2186419 |      2186419 |      4730843 |      4730843 |      4730957 |      4730957 |     10003076 |     10003076 |     10003183 |     10003183 |     21295029 |     21295029 |     21295136 |     21295136 |     45463265 |     45463265 |     45463373 |     45463373 |     95383150 |     95383150 |     95383258 |     95383258 |    201147548 |    201147548 |    201147656 |    201147656 |    425210877 |    425210877 |    425210987 |    425210987 |    886160021 |    886160021 |    886160131 |    886160131 |   1855398727 |   1855398727 |   1855398837 |   1855398837 |
il1.misses                                     528 |          528 |          440 |          440 |          568 |          568 |          459 |          459 |          569 |          569 |          455 |          455 |          567 |          567 |          460 |          460 |          567 |          567 |          460 |          460 |          567 |          567 |          459 |          459 |          567 |          567 |          459 |          459 |          567 |          567 |          459 |          459 |          603 |          603 |          493 |          493 |          603 |          603 |          493 |          493 |          603 |          603 |          493 |          493 |
il1.replacements                               315 |          315 |          184 |          184 |          347 |          347 |          203 |          203 |          348 |          348 |          199 |          199 |          346 |          346 |          204 |          204 |          346 |          346 |          204 |          204 |          346 |          346 |          203 |          203 |          346 |          346 |          203 |          203 |          346 |          346 |          203 |          203 |          387 |          387 |          237 |          237 |          387 |          387 |          237 |          237 |          387 |          387 |          237 |          237 |
il1.writebacks                                   0 |            0 |            0 |            0 |            0 |            0 |            0 |            0 |            0 |            0 |            0 |            0 |            0 |            0 |            0 |            0 |            0 |            0 |            0 |            0 |            0 |            0 |            0 |            0 |            0 |            0 |            0 |            0 |            0 |            0 |            0 |            0 |            0 |            0 |            0 |            0 |            0 |            0 |            0 |            0 |            0 |            0 |            0 |            0 |
il1.invalidations                                0 |            0 |            0 |            0 |            0 |            0 |            0 |            0 |            0 |            0 |            0 |            0 |            0 |            0 |            0 |            0 |            0 |            0 |            0 |            0 |            0 |            0 |            0 |            0 |            0 |            0 |            0 |            0 |            0 |            0 |            0 |            0 |            0 |            0 |            0 |            0 |            0 |            0 |            0 |            0 |            0 |            0 |            0 |            0 |
il1.miss_rate                               0.0005 |       0.0005 |       0.0004 |       0.0004 |       0.0003 |       0.0003 |       0.0002 |       0.0002 |       0.0001 |       0.0001 |       0.0001 |       0.0001 |       0.0001 |       0.0001 |       0.0000 |       0.0000 |       0.0000 |       0.0000 |       0.0000 |       0.0000 |       0.0000 |       0.0000 |       0.0000 |       0.0000 |       0.0000 |       0.0000 |       0.0000 |       0.0000 |       0.0000 |       0.0000 |       0.0000 |       0.0000 |       0.0000 |       0.0000 |       0.0000 |       0.0000 |       0.0000 |       0.0000 |       0.0000 |       0.0000 |       0.0000 |       0.0000 |       0.0000 |       0.0000 |
il1.repl_rate                               0.0003 |       0.0003 |       0.0002 |       0.0002 |       0.0002 |       0.0002 |       0.0001 |       0.0001 |       0.0001 |       0.0001 |       0.0000 |       0.0000 |       0.0000 |       0.0000 |       0.0000 |       0.0000 |       0.0000 |       0.0000 |       0.0000 |       0.0000 |       0.0000 |       0.0000 |       0.0000 |       0.0000 |       0.0000 |       0.0000 |       0.0000 |       0.0000 |       0.0000 |       0.0000 |       0.0000 |       0.0000 |       0.0000 |       0.0000 |       0.0000 |       0.0000 |       0.0000 |       0.0000 |       0.0000 |       0.0000 |       0.0000 |       0.0000 |       0.0000 |       0.0000 |
il1.wb_rate                                 0.0000 |       0.0000 |       0.0000 |       0.0000 |       0.0000 |       0.0000 |       0.0000 |       0.0000 |       0.0000 |       0.0000 |       0.0000 |       0.0000 |       0.0000 |       0.0000 |       0.0000 |       0.0000 |       0.0000 |       0.0000 |       0.0000 |       0.0000 |       0.0000 |       0.0000 |       0.0000 |       0.0000 |       0.0000 |       0.0000 |       0.0000 |       0.0000 |       0.0000 |       0.0000 |       0.0000 |       0.0000 |       0.0000 |       0.0000 |       0.0000 |       0.0000 |       0.0000 |       0.0000 |       0.0000 |       0.0000 |       0.0000 |       0.0000 |       0.0000 |       0.0000 |
il1.inv_rate                                0.0000 |       0.0000 |       0.0000 |       0.0000 |       0.0000 |       0.0000 |       0.0000 |       0.0000 |       0.0000 |       0.0000 |       0.0000 |       0.0000 |       0.0000 |       0.0000 |       0.0000 |       0.0000 |       0.0000 |       0.0000 |       0.0000 |       0.0000 |       0.0000 |       0.0000 |       0.0000 |       0.0000 |       0.0000 |       0.0000 |       0.0000 |       0.0000 |       0.0000 |       0.0000 |       0.0000 |       0.0000 |       0.0000 |       0.0000 |       0.0000 |       0.0000 |       0.0000 |       0.0000 |       0.0000 |       0.0000 |       0.0000 |       0.0000 |       0.0000 |       0.0000 |
dl1.accesses                                296271 |       296271 |       296271 |       296271 |       632745 |       632745 |       632745 |       632745 |      1360982 |      1360982 |      1360982 |      1360982 |      2865117 |      2865117 |      2865117 |      2865117 |      6081938 |      6081938 |      6081938 |      6081938 |     12947747 |     12947747 |     12947747 |     12947747 |     27089455 |     27089455 |     27089455 |     27089455 |     57033432 |     57033432 |     57033432 |     57033432 |    120337157 |    120337157 |    120337157 |    120337157 |    250259206 |    250259206 |    250259206 |    250259206 |    523365698 |    523365698 |    523365698 |    523365698 |
dl1.hits                                    291750 |       291750 |       292266 |       292266 |       620931 |       620931 |       622422 |       622422 |      1331512 |      1331512 |      1334404 |      1334404 |      2791990 |      2791990 |      2799461 |      2799461 |      5908576 |      5908576 |      5924600 |      5924600 |     12550618 |     12550618 |     12582284 |     12582284 |     26183971 |     26183971 |     26256024 |     26256024 |     55012479 |     55012479 |     55163027 |     55163027 |    115898004 |    115898004 |    116204415 |    116204415 |    240537459 |    240537459 |    241192310 |    241192310 |    502318645 |    502318645 |    503676019 |    503676019 |
dl1.misses                                    4521 |         4521 |         4005 |         4005 |        11814 |        11814 |        10323 |        10323 |        29470 |        29470 |        26578 |        26578 |        73127 |        73127 |        65656 |        65656 |       173362 |       173362 |       157338 |       157338 |       397129 |       397129 |       365463 |       365463 |       905484 |       905484 |       833431 |       833431 |      2020953 |      2020953 |      1870405 |      1870405 |      4439153 |      4439153 |      4132742 |      4132742 |      9721747 |      9721747 |      9066896 |      9066896 |     21047053 |     21047053 |     19689679 |     19689679 |
dl1.replacements                              4265 |         4265 |         3749 |         3749 |        11558 |        11558 |        10067 |        10067 |        29214 |        29214 |        26322 |        26322 |        72871 |        72871 |        65400 |        65400 |       173106 |       173106 |       157082 |       157082 |       396873 |       396873 |       365207 |       365207 |       905228 |       905228 |       833175 |       833175 |      2020697 |      2020697 |      1870149 |      1870149 |      4438897 |      4438897 |      4132486 |      4132486 |      9721491 |      9721491 |      9066640 |      9066640 |     21046797 |     21046797 |     19689423 |     19689423 |
dl1.writebacks                                3623 |         3623 |         3172 |         3172 |        10163 |        10163 |         8808 |         8808 |        26225 |        26225 |        23666 |        23666 |        66663 |        66663 |        59939 |        59939 |       160100 |       160100 |       145847 |       145847 |       370080 |       370080 |       342253 |       342253 |       850712 |       850712 |       787039 |       787039 |      1909198 |      1909198 |      1777297 |      1777297 |      4211357 |      4211357 |      3946268 |      3946268 |      9262798 |      9262798 |      8694292 |      8694292 |     20117947 |     20117947 |     18943718 |     18943718 |
dl1.invalidations                                0 |            0 |            0 |            0 |            0 |            0 |            0 |            0 |            0 |            0 |            0 |            0 |            0 |            0 |            0 |            0 |            0 |            0 |            0 |            0 |            0 |            0 |            0 |            0 |            0 |            0 |            0 |            0 |            0 |            0 |            0 |            0 |            0 |            0 |            0 |            0 |            0 |            0 |            0 |            0 |            0 |            0 |            0 |            0 |
dl1.miss_rate                               0.0153 |       0.0153 |       0.0135 |       0.0135 |       0.0187 |       0.0187 |       0.0163 |       0.0163 |       0.0217 |       0.0217 |       0.0195 |       0.0195 |       0.0255 |       0.0255 |       0.0229 |       0.0229 |       0.0285 |       0.0285 |       0.0259 |       0.0259 |       0.0307 |       0.0307 |       0.0282 |       0.0282 |       0.0334 |       0.0334 |       0.0308 |       0.0308 |       0.0354 |       0.0354 |       0.0328 |       0.0328 |       0.0369 |       0.0369 |       0.0343 |       0.0343 |       0.0388 |       0.0388 |       0.0362 |       0.0362 |       0.0402 |       0.0402 |       0.0376 |       0.0376 |
dl1.repl_rate                               0.0144 |       0.0144 |       0.0127 |       0.0127 |       0.0183 |       0.0183 |       0.0159 |       0.0159 |       0.0215 |       0.0215 |       0.0193 |       0.0193 |       0.0254 |       0.0254 |       0.0228 |       0.0228 |       0.0285 |       0.0285 |       0.0258 |       0.0258 |       0.0307 |       0.0307 |       0.0282 |       0.0282 |       0.0334 |       0.0334 |       0.0308 |       0.0308 |       0.0354 |       0.0354 |       0.0328 |       0.0328 |       0.0369 |       0.0369 |       0.0343 |       0.0343 |       0.0388 |       0.0388 |       0.0362 |       0.0362 |       0.0402 |       0.0402 |       0.0376 |       0.0376 |
dl1.wb_rate                                 0.0122 |       0.0122 |       0.0107 |       0.0107 |       0.0161 |       0.0161 |       0.0139 |       0.0139 |       0.0193 |       0.0193 |       0.0174 |       0.0174 |       0.0233 |       0.0233 |       0.0209 |       0.0209 |       0.0263 |       0.0263 |       0.0240 |       0.0240 |       0.0286 |       0.0286 |       0.0264 |       0.0264 |       0.0314 |       0.0314 |       0.0291 |       0.0291 |       0.0335 |       0.0335 |       0.0312 |       0.0312 |       0.0350 |       0.0350 |       0.0328 |       0.0328 |       0.0370 |       0.0370 |       0.0347 |       0.0347 |       0.0384 |       0.0384 |       0.0362 |       0.0362 |
dl1.inv_rate                                0.0000 |       0.0000 |       0.0000 |       0.0000 |       0.0000 |       0.0000 |       0.0000 |       0.0000 |       0.0000 |       0.0000 |       0.0000 |       0.0000 |       0.0000 |       0.0000 |       0.0000 |       0.0000 |       0.0000 |       0.0000 |       0.0000 |       0.0000 |       0.0000 |       0.0000 |       0.0000 |       0.0000 |       0.0000 |       0.0000 |       0.0000 |       0.0000 |       0.0000 |       0.0000 |       0.0000 |       0.0000 |       0.0000 |       0.0000 |       0.0000 |       0.0000 |       0.0000 |       0.0000 |       0.0000 |       0.0000 |       0.0000 |       0.0000 |       0.0000 |       0.0000 |
dl2.accesses                                  8672 |         8672 |         7617 |         7617 |        22545 |        22545 |        19590 |        19590 |        56264 |        56264 |        50699 |        50699 |       140357 |       140357 |       126055 |       126055 |       334029 |       334029 |       303645 |       303645 |       767776 |       767776 |       708175 |       708175 |      1756763 |      1756763 |      1620929 |      1620929 |      3930718 |      3930718 |      3648161 |      3648161 |      8651113 |      8651113 |      8079503 |      8079503 |     18985148 |     18985148 |     17761681 |     17761681 |     41165603 |     41165603 |     38633890 |     38633890 |
dl2.hits                                      6759 |         6759 |         5749 |         5749 |        19606 |        19606 |        16707 |        16707 |        51275 |        51275 |        45771 |        45771 |       131265 |       131265 |       117027 |       117027 |       316745 |       316745 |       286425 |       286425 |       734105 |       734105 |       674572 |       674572 |      1690326 |      1687815 |      1554558 |      1530781 |      3796236 |      3574532 |      3473093 |      3323353 |      7936826 |      7664475 |      7429696 |      7177235 |     17011936 |     16250926 |     15957728 |     15245167 |     35701839 |     34177881 |     33602761 |     31972743 |
dl2.misses                                    1913 |         1913 |         1868 |         1868 |         2939 |         2939 |         2883 |         2883 |         4989 |         4989 |         4928 |         4928 |         9092 |         9092 |         9028 |         9028 |        17284 |        17284 |        17220 |        17220 |        33671 |        33671 |        33603 |        33603 |        66437 |        68948 |        66371 |        90148 |       134482 |       356186 |       175068 |       324808 |       714287 |       986638 |       649807 |       902268 |      1973212 |      2734222 |      1803953 |      2516514 |      5463764 |      6987722 |      5031129 |      6661147 |
dl2.replacements                               273 |          273 |            0 |            0 |          270 |          270 |            0 |            0 |          296 |          296 |            0 |            0 |          302 |          302 |            0 |            0 |          302 |          302 |            0 |            0 |          306 |          306 |            0 |            0 |          304 |         4490 |            0 |        24612 |         4488 |       290650 |        43996 |       259272 |       583215 |       921102 |       518735 |       836732 |      1842140 |      2668686 |      1672881 |      2450978 |      5332692 |      6922186 |      4900057 |      6595611 |
dl2.writebacks                                 150 |          150 |            0 |            0 |          145 |          145 |            0 |            0 |          165 |          165 |            0 |            0 |          170 |          170 |            0 |            0 |          170 |          170 |            0 |            0 |          170 |          170 |            0 |            0 |          170 |         4356 |            0 |        23873 |         4356 |       227025 |        43257 |       192963 |       455253 |       780470 |       386313 |       694603 |      1561067 |      2359362 |      1388598 |      2137533 |      4714274 |      6252926 |      4273029 |      5922195 |
dl2.invalidations                                0 |            0 |            0 |            0 |            0 |            0 |            0 |            0 |            0 |            0 |            0 |            0 |            0 |            0 |            0 |            0 |            0 |            0 |            0 |            0 |            0 |            0 |            0 |            0 |            0 |            0 |            0 |            0 |            0 |            0 |            0 |            0 |            0 |            0 |            0 |            0 |            0 |            0 |            0 |            0 |            0 |            0 |            0 |            0 |
dl2.miss_rate                               0.2206 |       0.2206 |       0.2452 |       0.2452 |       0.1304 |       0.1304 |       0.1472 |       0.1472 |       0.0887 |       0.0887 |       0.0972 |       0.0972 |       0.0648 |       0.0648 |       0.0716 |       0.0716 |       0.0517 |       0.0517 |       0.0567 |       0.0567 |       0.0439 |       0.0439 |       0.0475 |       0.0475 |       0.0378 |       0.0392 |       0.0409 |       0.0556 |       0.0342 |       0.0906 |       0.0480 |       0.0890 |       0.0826 |       0.1140 |       0.0804 |       0.1117 |       0.1039 |       0.1440 |       0.1016 |       0.1417 |       0.1327 |       0.1697 |       0.1302 |       0.1724 |
dl2.repl_rate                               0.0315 |       0.0315 |       0.0000 |       0.0000 |       0.0120 |       0.0120 |       0.0000 |       0.0000 |       0.0053 |       0.0053 |       0.0000 |       0.0000 |       0.0022 |       0.0022 |       0.0000 |       0.0000 |       0.0009 |       0.0009 |       0.0000 |       0.0000 |       0.0004 |       0.0004 |       0.0000 |       0.0000 |       0.0002 |       0.0026 |       0.0000 |       0.0152 |       0.0011 |       0.0739 |       0.0121 |       0.0711 |       0.0674 |       0.1065 |       0.0642 |       0.1036 |       0.0970 |       0.1406 |       0.0942 |       0.1380 |       0.1295 |       0.1682 |       0.1268 |       0.1707 |
dl2.wb_rate                                 0.0173 |       0.0173 |       0.0000 |       0.0000 |       0.0064 |       0.0064 |       0.0000 |       0.0000 |       0.0029 |       0.0029 |       0.0000 |       0.0000 |       0.0012 |       0.0012 |       0.0000 |       0.0000 |       0.0005 |       0.0005 |       0.0000 |       0.0000 |       0.0002 |       0.0002 |       0.0000 |       0.0000 |       0.0001 |       0.0025 |       0.0000 |       0.0147 |       0.0011 |       0.0578 |       0.0119 |       0.0529 |       0.0526 |       0.0902 |       0.0478 |       0.0860 |       0.0822 |       0.1243 |       0.0782 |       0.1203 |       0.1145 |       0.1519 |       0.1106 |       0.1533 |
dl2.inv_rate                                0.0000 |       0.0000 |       0.0000 |       0.0000 |       0.0000 |       0.0000 |       0.0000 |       0.0000 |       0.0000 |       0.0000 |       0.0000 |       0.0000 |       0.0000 |       0.0000 |       0.0000 |       0.0000 |       0.0000 |       0.0000 |       0.0000 |       0.0000 |       0.0000 |       0.0000 |       0.0000 |       0.0000 |       0.0000 |       0.0000 |       0.0000 |       0.0000 |       0.0000 |       0.0000 |       0.0000 |       0.0000 |       0.0000 |       0.0000 |       0.0000 |       0.0000 |       0.0000 |       0.0000 |       0.0000 |       0.0000 |       0.0000 |       0.0000 |       0.0000 |       0.0000 |
itlb.accesses                              1016694 |      1016694 |      1016694 |      1016694 |      2186878 |      2186878 |      2186878 |      2186878 |      4731412 |      4731412 |      4731412 |      4731412 |     10003643 |     10003643 |     10003643 |     10003643 |     21295596 |     21295596 |     21295596 |     21295596 |     45463832 |     45463832 |     45463832 |     45463832 |     95383717 |     95383717 |     95383717 |     95383717 |    201148115 |    201148115 |    201148115 |    201148115 |    425211480 |    425211480 |    425211480 |    425211480 |    886160624 |    886160624 |    886160624 |    886160624 |   1855399330 |   1855399330 |   1855399330 |   1855399330 |
itlb.hits                                  1016684 |      1016684 |      1016684 |      1016684 |      2186868 |      2186868 |      2186868 |      2186868 |      4731402 |      4731402 |      4731402 |      4731402 |     10003633 |     10003633 |     10003633 |     10003633 |     21295586 |     21295586 |     21295586 |     21295586 |     45463822 |     45463822 |     45463822 |     45463822 |     95383707 |     95383707 |     95383707 |     95383707 |    201148105 |    201148105 |    201148105 |    201148105 |    425211470 |    425211470 |    425211470 |    425211470 |    886160614 |    886160614 |    886160614 |    886160614 |   1855399320 |   1855399320 |   1855399320 |   1855399320 |
itlb.misses                                     10 |           10 |           10 |           10 |           10 |           10 |           10 |           10 |           10 |           10 |           10 |           10 |           10 |           10 |           10 |           10 |           10 |           10 |           10 |           10 |           10 |           10 |           10 |           10 |           10 |           10 |           10 |           10 |           10 |           10 |           10 |           10 |           10 |           10 |           10 |           10 |           10 |           10 |           10 |           10 |           10 |           10 |           10 |           10 |
itlb.replacements                                0 |            0 |            0 |            0 |            0 |            0 |            0 |            0 |            0 |            0 |            0 |            0 |            0 |            0 |            0 |            0 |            0 |            0 |            0 |            0 |            0 |            0 |            0 |            0 |            0 |            0 |            0 |            0 |            0 |            0 |            0 |            0 |            0 |            0 |            0 |            0 |            0 |            0 |            0 |            0 |            0 |            0 |            0 |            0 |
itlb.writebacks                                  0 |            0 |            0 |            0 |            0 |            0 |            0 |            0 |            0 |            0 |            0 |            0 |            0 |            0 |            0 |            0 |            0 |            0 |            0 |            0 |            0 |            0 |            0 |            0 |            0 |            0 |            0 |            0 |            0 |            0 |            0 |            0 |            0 |            0 |            0 |            0 |            0 |            0 |            0 |            0 |            0 |            0 |            0 |            0 |
itlb.invalidations                               0 |            0 |            0 |            0 |            0 |            0 |            0 |            0 |            0 |            0 |            0 |            0 |            0 |            0 |            0 |            0 |            0 |            0 |            0 |            0 |            0 |            0 |            0 |            0 |            0 |            0 |            0 |            0 |            0 |            0 |            0 |            0 |            0 |            0 |            0 |            0 |            0 |            0 |            0 |            0 |            0 |            0 |            0 |            0 |
itlb.miss_rate                              0.0000 |       0.0000 |       0.0000 |       0.0000 |       0.0000 |       0.0000 |       0.0000 |       0.0000 |       0.0000 |       0.0000 |       0.0000 |       0.0000 |       0.0000 |       0.0000 |       0.0000 |       0.0000 |       0.0000 |       0.0000 |       0.0000 |       0.0000 |       0.0000 |       0.0000 |       0.0000 |       0.0000 |       0.0000 |       0.0000 |       0.0000 |       0.0000 |       0.0000 |       0.0000 |       0.0000 |       0.0000 |       0.0000 |       0.0000 |       0.0000 |       0.0000 |       0.0000 |       0.0000 |       0.0000 |       0.0000 |       0.0000 |       0.0000 |       0.0000 |       0.0000 |
itlb.repl_rate                              0.0000 |       0.0000 |       0.0000 |       0.0000 |       0.0000 |       0.0000 |       0.0000 |       0.0000 |       0.0000 |       0.0000 |       0.0000 |       0.0000 |       0.0000 |       0.0000 |       0.0000 |       0.0000 |       0.0000 |       0.0000 |       0.0000 |       0.0000 |       0.0000 |       0.0000 |       0.0000 |       0.0000 |       0.0000 |       0.0000 |       0.0000 |       0.0000 |       0.0000 |       0.0000 |       0.0000 |       0.0000 |       0.0000 |       0.0000 |       0.0000 |       0.0000 |       0.0000 |       0.0000 |       0.0000 |       0.0000 |       0.0000 |       0.0000 |       0.0000 |       0.0000 |
itlb.wb_rate                                0.0000 |       0.0000 |       0.0000 |       0.0000 |       0.0000 |       0.0000 |       0.0000 |       0.0000 |       0.0000 |       0.0000 |       0.0000 |       0.0000 |       0.0000 |       0.0000 |       0.0000 |       0.0000 |       0.0000 |       0.0000 |       0.0000 |       0.0000 |       0.0000 |       0.0000 |       0.0000 |       0.0000 |       0.0000 |       0.0000 |       0.0000 |       0.0000 |       0.0000 |       0.0000 |       0.0000 |       0.0000 |       0.0000 |       0.0000 |       0.0000 |       0.0000 |       0.0000 |       0.0000 |       0.0000 |       0.0000 |       0.0000 |       0.0000 |       0.0000 |       0.0000 |
itlb.inv_rate                               0.0000 |       0.0000 |       0.0000 |       0.0000 |       0.0000 |       0.0000 |       0.0000 |       0.0000 |       0.0000 |       0.0000 |       0.0000 |       0.0000 |       0.0000 |       0.0000 |       0.0000 |       0.0000 |       0.0000 |       0.0000 |       0.0000 |       0.0000 |       0.0000 |       0.0000 |       0.0000 |       0.0000 |       0.0000 |       0.0000 |       0.0000 |       0.0000 |       0.0000 |       0.0000 |       0.0000 |       0.0000 |       0.0000 |       0.0000 |       0.0000 |       0.0000 |       0.0000 |       0.0000 |       0.0000 |       0.0000 |       0.0000 |       0.0000 |       0.0000 |       0.0000 |
dtlb.accesses                               296271 |       296271 |       296271 |       296271 |       632745 |       632745 |       632745 |       632745 |      1360982 |      1360982 |      1360982 |      1360982 |      2865117 |      2865117 |      2865117 |      2865117 |      6081938 |      6081938 |      6081938 |      6081938 |     12947747 |     12947747 |     12947747 |     12947747 |     27089455 |     27089455 |     27089455 |     27089455 |     57033432 |     57033432 |     57033432 |     57033432 |    120337157 |    120337157 |    120337157 |    120337157 |    250259206 |    250259206 |    250259206 |    250259206 |    523365698 |    523365698 |    523365698 |    523365698 |
dtlb.hits                                   296255 |       296255 |       296255 |       296255 |       632721 |       632721 |       632721 |       632721 |      1360942 |      1360942 |      1360942 |      1360942 |      2865045 |      2865045 |      2865045 |      2865045 |      6081791 |      6081791 |      6081791 |      6081791 |     12946936 |     12946936 |     12946936 |     12946936 |     27043247 |     27043247 |     27043247 |     27043247 |     56775049 |     56775049 |     56775049 |     56775049 |    119413407 |    119413407 |    119413407 |    119413407 |    247568040 |    247568040 |    247568040 |    247568040 |    516261147 |    516261147 |    516261147 |    516261147 |
dtlb.misses                                     16 |           16 |           16 |           16 |           24 |           24 |           24 |           24 |           40 |           40 |           40 |           40 |           72 |           72 |           72 |           72 |          147 |          147 |          147 |          147 |          811 |          811 |          811 |          811 |        46208 |        46208 |        46208 |        46208 |       258383 |       258383 |       258383 |       258383 |       923750 |       923750 |       923750 |       923750 |      2691166 |      2691166 |      2691166 |      2691166 |      7104551 |      7104551 |      7104551 |      7104551 |
dtlb.replacements                                0 |            0 |            0 |            0 |            0 |            0 |            0 |            0 |            0 |            0 |            0 |            0 |            0 |            0 |            0 |            0 |           19 |           19 |           19 |           19 |          683 |          683 |          683 |          683 |        46080 |        46080 |        46080 |        46080 |       258255 |       258255 |       258255 |       258255 |       923622 |       923622 |       923622 |       923622 |      2691038 |      2691038 |      2691038 |      2691038 |      7104423 |      7104423 |      7104423 |      7104423 |
dtlb.writebacks                                  0 |            0 |            0 |            0 |            0 |            0 |            0 |            0 |            0 |            0 |            0 |            0 |            0 |            0 |            0 |            0 |           16 |           16 |           16 |           16 |          559 |          559 |          559 |          559 |        44722 |        44722 |        44722 |        44722 |       248546 |       248546 |       248546 |       248546 |       891272 |       891272 |       891272 |       891272 |      2607271 |      2607271 |      2607271 |      2607271 |      6912433 |      6912433 |      6912433 |      6912433 |
dtlb.invalidations                               0 |            0 |            0 |            0 |            0 |            0 |            0 |            0 |            0 |            0 |            0 |            0 |            0 |            0 |            0 |            0 |            0 |            0 |            0 |            0 |            0 |            0 |            0 |            0 |            0 |            0 |            0 |            0 |            0 |            0 |            0 |            0 |            0 |            0 |            0 |            0 |            0 |            0 |            0 |            0 |            0 |            0 |            0 |            0 |
dtlb.miss_rate                              0.0001 |       0.0001 |       0.0001 |       0.0001 |       0.0000 |       0.0000 |       0.0000 |       0.0000 |       0.0000 |       0.0000 |       0.0000 |       0.0000 |       0.0000 |       0.0000 |       0.0000 |       0.0000 |       0.0000 |       0.0000 |       0.0000 |       0.0000 |       0.0001 |       0.0001 |       0.0001 |       0.0001 |       0.0017 |       0.0017 |       0.0017 |       0.0017 |       0.0045 |       0.0045 |       0.0045 |       0.0045 |       0.0077 |       0.0077 |       0.0077 |       0.0077 |       0.0108 |       0.0108 |       0.0108 |       0.0108 |       0.0136 |       0.0136 |       0.0136 |       0.0136 |
dtlb.repl_rate                              0.0000 |       0.0000 |       0.0000 |       0.0000 |       0.0000 |       0.0000 |       0.0000 |       0.0000 |       0.0000 |       0.0000 |       0.0000 |       0.0000 |       0.0000 |       0.0000 |       0.0000 |       0.0000 |       0.0000 |       0.0000 |       0.0000 |       0.0000 |       0.0001 |       0.0001 |       0.0001 |       0.0001 |       0.0017 |       0.0017 |       0.0017 |       0.0017 |       0.0045 |       0.0045 |       0.0045 |       0.0045 |       0.0077 |       0.0077 |       0.0077 |       0.0077 |       0.0108 |       0.0108 |       0.0108 |       0.0108 |       0.0136 |       0.0136 |       0.0136 |       0.0136 |
dtlb.wb_rate                                0.0000 |       0.0000 |       0.0000 |       0.0000 |       0.0000 |       0.0000 |       0.0000 |       0.0000 |       0.0000 |       0.0000 |       0.0000 |       0.0000 |       0.0000 |       0.0000 |       0.0000 |       0.0000 |       0.0000 |       0.0000 |       0.0000 |       0.0000 |       0.0000 |       0.0000 |       0.0000 |       0.0000 |       0.0017 |       0.0017 |       0.0017 |       0.0017 |       0.0044 |       0.0044 |       0.0044 |       0.0044 |       0.0074 |       0.0074 |       0.0074 |       0.0074 |       0.0104 |       0.0104 |       0.0104 |       0.0104 |       0.0132 |       0.0132 |       0.0132 |       0.0132 |
dtlb.inv_rate                               0.0000 |       0.0000 |       0.0000 |       0.0000 |       0.0000 |       0.0000 |       0.0000 |       0.0000 |       0.0000 |       0.0000 |       0.0000 |       0.0000 |       0.0000 |       0.0000 |       0.0000 |       0.0000 |       0.0000 |       0.0000 |       0.0000 |       0.0000 |       0.0000 |       0.0000 |       0.0000 |       0.0000 |       0.0000 |       0.0000 |       0.0000 |       0.0000 |       0.0000 |       0.0000 |       0.0000 |       0.0000 |       0.0000 |       0.0000 |       0.0000 |       0.0000 |       0.0000 |       0.0000 |       0.0000 |       0.0000 |       0.0000 |       0.0000 |       0.0000 |       0.0000 |
ld_text_base                            0x00400000 |   0x00400000 |   0x00400000 |   0x00400000 |   0x00400000 |   0x00400000 |   0x00400000 |   0x00400000 |   0x00400000 |   0x00400000 |   0x00400000 |   0x00400000 |   0x00400000 |   0x00400000 |   0x00400000 |   0x00400000 |   0x00400000 |   0x00400000 |   0x00400000 |   0x00400000 |   0x00400000 |   0x00400000 |   0x00400000 |   0x00400000 |   0x00400000 |   0x00400000 |   0x00400000 |   0x00400000 |   0x00400000 |   0x00400000 |   0x00400000 |   0x00400000 |   0x00400000 |   0x00400000 |   0x00400000 |   0x00400000 |   0x00400000 |   0x00400000 |   0x00400000 |   0x00400000 |   0x00400000 |   0x00400000 |   0x00400000 |   0x00400000 |
ld_text_size                                 74528 |        74528 |        74528 |        74528 |        74560 |        74560 |        74560 |        74560 |        74576 |        74576 |        74576 |        74576 |        74592 |        74592 |        74592 |        74592 |        74592 |        74592 |        74592 |        74592 |        74592 |        74592 |        74592 |        74592 |        74592 |        74592 |        74592 |        74592 |        74592 |        74592 |        74592 |        74592 |        74592 |        74592 |        74592 |        74592 |        74592 |        74592 |        74592 |        74592 |        74592 |        74592 |        74592 |        74592 |
ld_data_base                            0x10000000 |   0x10000000 |   0x10000000 |   0x10000000 |   0x10000000 |   0x10000000 |   0x10000000 |   0x10000000 |   0x10000000 |   0x10000000 |   0x10000000 |   0x10000000 |   0x10000000 |   0x10000000 |   0x10000000 |   0x10000000 |   0x10000000 |   0x10000000 |   0x10000000 |   0x10000000 |   0x10000000 |   0x10000000 |   0x10000000 |   0x10000000 |   0x10000000 |   0x10000000 |   0x10000000 |   0x10000000 |   0x10000000 |   0x10000000 |   0x10000000 |   0x10000000 |   0x10000000 |   0x10000000 |   0x10000000 |   0x10000000 |   0x10000000 |   0x10000000 |   0x10000000 |   0x10000000 |   0x10000000 |   0x10000000 |   0x10000000 |   0x10000000 |
ld_data_size                                  8192 |         8192 |         8192 |         8192 |         8192 |         8192 |         8192 |         8192 |         8192 |         8192 |         8192 |         8192 |         8192 |         8192 |         8192 |         8192 |         8192 |         8192 |         8192 |         8192 |         8192 |         8192 |         8192 |         8192 |         8192 |         8192 |         8192 |         8192 |         8192 |         8192 |         8192 |         8192 |         8192 |         8192 |         8192 |         8192 |         8192 |         8192 |         8192 |         8192 |         8192 |         8192 |         8192 |         8192 |
ld_stack_base                           0x7fffc000 |   0x7fffc000 |   0x7fffc000 |   0x7fffc000 |   0x7fffc000 |   0x7fffc000 |   0x7fffc000 |   0x7fffc000 |   0x7fffc000 |   0x7fffc000 |   0x7fffc000 |   0x7fffc000 |   0x7fffc000 |   0x7fffc000 |   0x7fffc000 |   0x7fffc000 |   0x7fffc000 |   0x7fffc000 |   0x7fffc000 |   0x7fffc000 |   0x7fffc000 |   0x7fffc000 |   0x7fffc000 |   0x7fffc000 |   0x7fffc000 |   0x7fffc000 |   0x7fffc000 |   0x7fffc000 |   0x7fffc000 |   0x7fffc000 |   0x7fffc000 |   0x7fffc000 |   0x7fffc000 |   0x7fffc000 |   0x7fffc000 |   0x7fffc000 |   0x7fffc000 |   0x7fffc000 |   0x7fffc000 |   0x7fffc000 |   0x7fffc000 |   0x7fffc000 |   0x7fffc000 |   0x7fffc000 |
ld_stack_size                                16384 |        16384 |        16384 |        16384 |        16384 |        16384 |        16384 |        16384 |        16384 |        16384 |        16384 |        16384 |        16384 |        16384 |        16384 |        16384 |        16384 |        16384 |        16384 |        16384 |        16384 |        16384 |        16384 |        16384 |        16384 |        16384 |        16384 |        16384 |        16384 |        16384 |        16384 |        16384 |        16384 |        16384 |        16384 |        16384 |        16384 |        16384 |        16384 |        16384 |        16384 |        16384 |        16384 |        16384 |
ld_prog_entry                           0x00400140 |   0x00400140 |   0x00400140 |   0x00400140 |   0x00400140 |   0x00400140 |   0x00400140 |   0x00400140 |   0x00400140 |   0x00400140 |   0x00400140 |   0x00400140 |   0x00400140 |   0x00400140 |   0x00400140 |   0x00400140 |   0x00400140 |   0x00400140 |   0x00400140 |   0x00400140 |   0x00400140 |   0x00400140 |   0x00400140 |   0x00400140 |   0x00400140 |   0x00400140 |   0x00400140 |   0x00400140 |   0x00400140 |   0x00400140 |   0x00400140 |   0x00400140 |   0x00400140 |   0x00400140 |   0x00400140 |   0x00400140 |   0x00400140 |   0x00400140 |   0x00400140 |   0x00400140 |   0x00400140 |   0x00400140 |   0x00400140 |   0x00400140 |
ld_environ_base                         0x7fff8000 |   0x7fff8000 |   0x7fff8000 |   0x7fff8000 |   0x7fff8000 |   0x7fff8000 |   0x7fff8000 |   0x7fff8000 |   0x7fff8000 |   0x7fff8000 |   0x7fff8000 |   0x7fff8000 |   0x7fff8000 |   0x7fff8000 |   0x7fff8000 |   0x7fff8000 |   0x7fff8000 |   0x7fff8000 |   0x7fff8000 |   0x7fff8000 |   0x7fff8000 |   0x7fff8000 |   0x7fff8000 |   0x7fff8000 |   0x7fff8000 |   0x7fff8000 |   0x7fff8000 |   0x7fff8000 |   0x7fff8000 |   0x7fff8000 |   0x7fff8000 |   0x7fff8000 |   0x7fff8000 |   0x7fff8000 |   0x7fff8000 |   0x7fff8000 |   0x7fff8000 |   0x7fff8000 |   0x7fff8000 |   0x7fff8000 |   0x7fff8000 |   0x7fff8000 |   0x7fff8000 |   0x7fff8000 |
ld_target_big_endian                             0 |            0 |            0 |            0 |            0 |            0 |            0 |            0 |            0 |            0 |            0 |            0 |            0 |            0 |            0 |            0 |            0 |            0 |            0 |            0 |            0 |            0 |            0 |            0 |            0 |            0 |            0 |            0 |            0 |            0 |            0 |            0 |            0 |            0 |            0 |            0 |            0 |            0 |            0 |            0 |            0 |            0 |            0 |            0 |
mem.page_count                                  35 |           35 |           35 |           35 |           43 |           43 |           43 |           43 |           59 |           59 |           59 |           59 |           91 |           91 |           91 |           91 |          155 |          155 |          155 |          155 |          283 |          283 |          283 |          283 |          539 |          539 |          539 |          539 |         1051 |         1051 |         1051 |         1051 |         2081 |         2081 |         2081 |         2081 |         4135 |         4135 |         4135 |         4135 |         8243 |         8243 |         8243 |         8243 |
mem.page_mem                                  140k |         140k |         140k |         140k |         172k |         172k |         172k |         172k |         236k |         236k |         236k |         236k |         364k |         364k |         364k |         364k |         620k |         620k |         620k |         620k |        1132k |        1132k |        1132k |        1132k |        2156k |        2156k |        2156k |        2156k |        4204k |        4204k |        4204k |        4204k |        8324k |        8324k |        8324k |        8324k |       16540k |       16540k |       16540k |       16540k |       32972k |       32972k |       32972k |       32972k |
mem.ptab_misses                                 35 |           35 |           35 |           35 |           43 |           43 |           43 |           43 |           59 |           59 |           59 |           59 |           91 |           91 |           91 |           91 |          155 |          155 |          155 |          155 |          283 |          283 |          283 |          283 |          539 |          539 |          539 |          539 |         1051 |         1051 |         1051 |         1051 |         8884 |         8884 |         8884 |         8884 |        34762 |        34762 |        34762 |        34762 |        62164 |        62164 |        62164 |        62164 |
mem.ptab_accesses                          5121066 |      5121066 |      5121066 |      5121066 |     10474942 |     10474942 |     10474942 |     10474942 |     22109648 |     22109648 |     22109648 |     22109648 |     46206938 |     46206938 |     46206938 |     46206938 |     97808392 |     97808392 |     97808392 |     97808392 |    208212954 |    208212954 |    208212954 |    208212954 |    436175910 |    436175910 |    436175910 |    436175910 |    919121456 |    919121456 |    919121456 |    919121456 |   1941982366 |   1941982366 |   1941982366 |   1941982366 |   4045623040 |   4045623040 |   4045623040 |   4045623040 |   8468790848 |   8468790848 |   8468790848 |   8468790848 |
mem.ptab_miss_rate                          0.0000 |       0.0000 |       0.0000 |       0.0000 |       0.0000 |       0.0000 |       0.0000 |       0.0000 |       0.0000 |       0.0000 |       0.0000 |       0.0000 |       0.0000 |       0.0000 |       0.0000 |       0.0000 |       0.0000 |       0.0000 |       0.0000 |       0.0000 |       0.0000 |       0.0000 |       0.0000 |       0.0000 |       0.0000 |       0.0000 |       0.0000 |       0.0000 |       0.0000 |       0.0000 |       0.0000 |       0.0000 |       0.0000 |       0.0000 |       0.0000 |       0.0000 |       0.0000 |       0.0000 |       0.0000 |       0.0000 |       0.0000 |       0.0000 |       0.0000 |       0.0000 |
-------------------------------------------------------------------------------------------------
sim-bpred                                     4096 |         4096 |         4096 |         4096 |         4096 |         4096 |         4096 |         8192 |         8192 |         8192 |         8192 |         8192 |         8192 |         8192 |        16384 |        16384 |        16384 |        16384 |        16384 |        16384 |        16384 |        32768 |        32768 |        32768 |        32768 |        32768 |        32768 |        32768 |        65536 |        65536 |        65536 |        65536 |        65536 |        65536 |        65536 |       131072 |       131072 |       131072 |       131072 |       131072 |       131072 |       131072 |       262144 |       262144 |       262144 |       262144 |       262144 |       262144 |       262144 |       524288 |       524288 |       524288 |       524288 |       524288 |       524288 |       524288 |      1048576 |      1048576 |      1048576 |      1048576 |      1048576 |      1048576 |      1048576 |      2097152 |      2097152 |      2097152 |      2097152 |      2097152 |      2097152 |      2097152 |      4194304 |      4194304 |      4194304 |      4194304 |      4194304 |      4194304 |      4194304 |
-bpred bimod -bpred:bimod 512
-bpred bimod -bpred:bimod 1024
-bpred bimod -bpred:bimod 2048
-bpred 2lev -bpred:2lev 1 512 10 1
-bpred 2lev -bpred:2lev 1 1024 10 1
-bpred 2lev -bpred:2lev 1 2048 10 1
-bpred 2lev -bpred:2lev 1 4096 10 1
-------------------------------------------------------------------------------------------------
sim_num_insn                               1016694 |      1016694 |      1016694 |      1016694 |      1016694 |      1016694 |      1016694 |      2186878 |      2186878 |      2186878 |      2186878 |      2186878 |      2186878 |      2186878 |      4731412 |      4731412 |      4731412 |      4731412 |      4731412 |      4731412 |      4731412 |     10003643 |     10003643 |     10003643 |     10003643 |     10003643 |     10003643 |     10003643 |     21295596 |     21295596 |     21295596 |     21295596 |     21295596 |     21295596 |     21295596 |     45463832 |     45463832 |     45463832 |     45463832 |     45463832 |     45463832 |     45463832 |     95383717 |     95383717 |     95383717 |     95383717 |     95383717 |     95383717 |     95383717 |    201148115 |    201148115 |    201148115 |    201148115 |    201148115 |    201148115 |    201148115 |    425211480 |    425211480 |    425211480 |    425211480 |    425211480 |    425211480 |    425211480 |    886160624 |    886160624 |    886160624 |    886160624 |    886160624 |    886160624 |    886160624 |   1855399330 |   1855399330 |   1855399330 |   1855399330 |   1855399330 |   1855399330 |   1855399330 |
sim_num_refs                                279805 |       279805 |       279805 |       279805 |       279805 |       279805 |       279805 |       599895 |       599895 |       599895 |       599895 |       599895 |       599895 |       599895 |      1295364 |      1295364 |      1295364 |      1295364 |      1295364 |      1295364 |      1295364 |      2733963 |      2733963 |      2733963 |      2733963 |      2733963 |      2733963 |      2733963 |      5819712 |      5819712 |      5819712 |      5819712 |      5819712 |      5819712 |      5819712 |     12423377 |     12423377 |     12423377 |     12423377 |     12423377 |     12423377 |     12423377 |     26040797 |     26040797 |     26040797 |     26040797 |     26040797 |     26040797 |     26040797 |     54936198 |     54936198 |     54936198 |     54936198 |     54936198 |     54936198 |     54936198 |    116142771 |    116142771 |    116142771 |    116142771 |    116142771 |    116142771 |    116142771 |    241870516 |    241870516 |    241870516 |    241870516 |    241870516 |    241870516 |    241870516 |    506588400 |    506588400 |    506588400 |    506588400 |    506588400 |    506588400 |    506588400 |
sim_elapsed_time                                 1 |            1 |            1 |            1 |            1 |            1 |            1 |            1 |            1 |            1 |            1 |            1 |            1 |            1 |            1 |            1 |            1 |            1 |            1 |            1 |            1 |            1 |            1 |            2 |            1 |            1 |            2 |            1 |            2 |            3 |            3 |            2 |            3 |            3 |            3 |            5 |            6 |            6 |            5 |            6 |            6 |            5 |           12 |           12 |           11 |           12 |           12 |           12 |           12 |           24 |           25 |           25 |           25 |           25 |           25 |           25 |           52 |           52 |           51 |           53 |           53 |           53 |           52 |          108 |          108 |          108 |          110 |          109 |          109 |          109 |          222 |          221 |          221 |          226 |          226 |          226 |          227 |
sim_inst_rate                         1016694.0000 | 1016694.0000 | 1016694.0000 | 1016694.0000 | 1016694.0000 | 1016694.0000 | 1016694.0000 | 2186878.0000 | 2186878.0000 | 2186878.0000 | 2186878.0000 | 2186878.0000 | 2186878.0000 | 2186878.0000 | 4731412.0000 | 4731412.0000 | 4731412.0000 | 4731412.0000 | 4731412.0000 | 4731412.0000 | 4731412.0000 |10003643.0000 |10003643.0000 | 5001821.5000 |10003643.0000 |10003643.0000 | 5001821.5000 |10003643.0000 |10647798.0000 | 7098532.0000 | 7098532.0000 |10647798.0000 | 7098532.0000 | 7098532.0000 | 7098532.0000 | 9092766.4000 | 7577305.3333 | 7577305.3333 | 9092766.4000 | 7577305.3333 | 7577305.3333 | 9092766.4000 | 7948643.0833 | 7948643.0833 | 8671247.0000 | 7948643.0833 | 7948643.0833 | 7948643.0833 | 7948643.0833 | 8381171.4583 | 8045924.6000 | 8045924.6000 | 8045924.6000 | 8045924.6000 | 8045924.6000 | 8045924.6000 | 8177143.8462 | 8177143.8462 | 8337480.0000 | 8022858.1132 | 8022858.1132 | 8022858.1132 | 8177143.8462 | 8205190.9630 | 8205190.9630 | 8205190.9630 | 8056005.6727 | 8129913.9817 | 8129913.9817 | 8129913.9817 | 8357654.6396 | 8395472.0814 | 8395472.0814 | 8209731.5487 | 8209731.5487 | 8209731.5487 | 8173565.3304 |
sim_num_branches                            171845 |       171845 |       171845 |       171845 |       171845 |       171845 |       171845 |       370324 |       370324 |       370324 |       370324 |       370324 |       370324 |       370324 |       802158 |       802158 |       802158 |       802158 |       802158 |       802158 |       802158 |      1695414 |      1695414 |      1695414 |      1695414 |      1695414 |      1695414 |      1695414 |      3612339 |      3612339 |      3612339 |      3612339 |      3612339 |      3612339 |      3612339 |      7715673 |      7715673 |      7715673 |      7715673 |      7715673 |      7715673 |      7715673 |     16178772 |     16178772 |     16178772 |     16178772 |     16178772 |     16178772 |     16178772 |     34143210 |     34143210 |     34143210 |     34143210 |     34143210 |     34143210 |     34143210 |     72202116 |     72202116 |     72202116 |     72202116 |     72202116 |     72202116 |     72202116 |    150397157 |    150397157 |    150397157 |    150397157 |    150397157 |    150397157 |    150397157 |    315077763 |    315077763 |    315077763 |    315077763 |    315077763 |    315077763 |    315077763 |
sim_IPB                                     5.9163 |       5.9163 |       5.9163 |       5.9163 |       5.9163 |       5.9163 |       5.9163 |       5.9053 |       5.9053 |       5.9053 |       5.9053 |       5.9053 |       5.9053 |       5.9053 |       5.8984 |       5.8984 |       5.8984 |       5.8984 |       5.8984 |       5.8984 |       5.8984 |       5.9004 |       5.9004 |       5.9004 |       5.9004 |       5.9004 |       5.9004 |       5.9004 |       5.8952 |       5.8952 |       5.8952 |       5.8952 |       5.8952 |       5.8952 |       5.8952 |       5.8924 |       5.8924 |       5.8924 |       5.8924 |       5.8924 |       5.8924 |       5.8924 |       5.8956 |       5.8956 |       5.8956 |       5.8956 |       5.8956 |       5.8956 |       5.8956 |       5.8913 |       5.8913 |       5.8913 |       5.8913 |       5.8913 |       5.8913 |       5.8913 |       5.8892 |       5.8892 |       5.8892 |       5.8892 |       5.8892 |       5.8892 |       5.8892 |       5.8921 |       5.8921 |       5.8921 |       5.8921 |       5.8921 |       5.8921 |       5.8921 |       5.8887 |       5.8887 |       5.8887 |       5.8887 |       5.8887 |       5.8887 |       5.8887 |
bpred_bimod.lookups                         171845 |       171845 |       171845 |xxxxxxxxxxxxx |xxxxxxxxxxxxx |xxxxxxxxxxxxx |xxxxxxxxxxxxx |       370324 |       370324 |       370324 |xxxxxxxxxxxxx |xxxxxxxxxxxxx |xxxxxxxxxxxxx |xxxxxxxxxxxxx |       802158 |       802158 |       802158 |xxxxxxxxxxxxx |xxxxxxxxxxxxx |xxxxxxxxxxxxx |xxxxxxxxxxxxx |      1695414 |      1695414 |      1695414 |xxxxxxxxxxxxx |xxxxxxxxxxxxx |xxxxxxxxxxxxx |xxxxxxxxxxxxx |      3612339 |      3612339 |      3612339 |xxxxxxxxxxxxx |xxxxxxxxxxxxx |xxxxxxxxxxxxx |xxxxxxxxxxxxx |      7715673 |      7715673 |      7715673 |xxxxxxxxxxxxx |xxxxxxxxxxxxx |xxxxxxxxxxxxx |xxxxxxxxxxxxx |     16178772 |     16178772 |     16178772 |xxxxxxxxxxxxx |xxxxxxxxxxxxx |xxxxxxxxxxxxx |xxxxxxxxxxxxx |     34143210 |     34143210 |     34143210 |xxxxxxxxxxxxx |xxxxxxxxxxxxx |xxxxxxxxxxxxx |xxxxxxxxxxxxx |     72202116 |     72202116 |     72202116 |xxxxxxxxxxxxx |xxxxxxxxxxxxx |xxxxxxxxxxxxx |xxxxxxxxxxxxx |    150397157 |    150397157 |    150397157 |xxxxxxxxxxxxx |xxxxxxxxxxxxx |xxxxxxxxxxxxx |xxxxxxxxxxxxx |    315077763 |    315077763 |    315077763 |
bpred_bimod.updates                         171845 |       171845 |       171845 |xxxxxxxxxxxxx |xxxxxxxxxxxxx |xxxxxxxxxxxxx |xxxxxxxxxxxxx |       370324 |       370324 |       370324 |xxxxxxxxxxxxx |xxxxxxxxxxxxx |xxxxxxxxxxxxx |xxxxxxxxxxxxx |       802158 |       802158 |       802158 |xxxxxxxxxxxxx |xxxxxxxxxxxxx |xxxxxxxxxxxxx |xxxxxxxxxxxxx |      1695414 |      1695414 |      1695414 |xxxxxxxxxxxxx |xxxxxxxxxxxxx |xxxxxxxxxxxxx |xxxxxxxxxxxxx |      3612339 |      3612339 |      3612339 |xxxxxxxxxxxxx |xxxxxxxxxxxxx |xxxxxxxxxxxxx |xxxxxxxxxxxxx |      7715673 |      7715673 |      7715673 |xxxxxxxxxxxxx |xxxxxxxxxxxxx |xxxxxxxxxxxxx |xxxxxxxxxxxxx |     16178772 |     16178772 |     16178772 |xxxxxxxxxxxxx |xxxxxxxxxxxxx |xxxxxxxxxxxxx |xxxxxxxxxxxxx |     34143210 |     34143210 |     34143210 |xxxxxxxxxxxxx |xxxxxxxxxxxxx |xxxxxxxxxxxxx |xxxxxxxxxxxxx |     72202116 |     72202116 |     72202116 |xxxxxxxxxxxxx |xxxxxxxxxxxxx |xxxxxxxxxxxxx |xxxxxxxxxxxxx |    150397157 |    150397157 |    150397157 |xxxxxxxxxxxxx |xxxxxxxxxxxxx |xxxxxxxxxxxxx |xxxxxxxxxxxxx |    315077763 |    315077763 |    315077763 |
bpred_bimod.addr_hits                       140707 |       140713 |       140714 |xxxxxxxxxxxxx |xxxxxxxxxxxxx |xxxxxxxxxxxxx |xxxxxxxxxxxxx |       303319 |       303326 |       303329 |xxxxxxxxxxxxx |xxxxxxxxxxxxx |xxxxxxxxxxxxx |xxxxxxxxxxxxx |       658780 |       658786 |       658787 |xxxxxxxxxxxxx |xxxxxxxxxxxxx |xxxxxxxxxxxxx |xxxxxxxxxxxxx |      1382975 |      1382983 |      1382984 |xxxxxxxxxxxxx |xxxxxxxxxxxxx |xxxxxxxxxxxxx |xxxxxxxxxxxxx |      2945128 |      2945136 |      2945137 |xxxxxxxxxxxxx |xxxxxxxxxxxxx |xxxxxxxxxxxxx |xxxxxxxxxxxxx |      6311907 |      6311916 |      6311916 |xxxxxxxxxxxxx |xxxxxxxxxxxxx |xxxxxxxxxxxxx |xxxxxxxxxxxxx |     13165315 |     13165324 |     13165324 |xxxxxxxxxxxxx |xxxxxxxxxxxxx |xxxxxxxxxxxxx |xxxxxxxxxxxxx |     27790944 |     27790953 |     27790953 |xxxxxxxxxxxxx |xxxxxxxxxxxxx |xxxxxxxxxxxxx |xxxxxxxxxxxxx |     58940058 |     58940066 |     58940066 |xxxxxxxxxxxxx |xxxxxxxxxxxxx |xxxxxxxxxxxxx |xxxxxxxxxxxxx |    122206946 |    122206954 |    122206954 |xxxxxxxxxxxxx |xxxxxxxxxxxxx |xxxxxxxxxxxxx |xxxxxxxxxxxxx |    256070060 |    256070068 |    256070068 |
bpred_bimod.dir_hits                        140827 |       140833 |       140834 |xxxxxxxxxxxxx |xxxxxxxxxxxxx |xxxxxxxxxxxxx |xxxxxxxxxxxxx |       303444 |       303451 |       303453 |xxxxxxxxxxxxx |xxxxxxxxxxxxx |xxxxxxxxxxxxx |xxxxxxxxxxxxx |       658910 |       658912 |       658911 |xxxxxxxxxxxxx |xxxxxxxxxxxxx |xxxxxxxxxxxxx |xxxxxxxxxxxxx |      1383100 |      1383107 |      1383107 |xxxxxxxxxxxxx |xxxxxxxxxxxxx |xxxxxxxxxxxxx |xxxxxxxxxxxxx |      2945254 |      2945261 |      2945261 |xxxxxxxxxxxxx |xxxxxxxxxxxxx |xxxxxxxxxxxxx |xxxxxxxxxxxxx |      6312033 |      6312041 |      6312040 |xxxxxxxxxxxxx |xxxxxxxxxxxxx |xxxxxxxxxxxxx |xxxxxxxxxxxxx |     13165441 |     13165449 |     13165448 |xxxxxxxxxxxxx |xxxxxxxxxxxxx |xxxxxxxxxxxxx |xxxxxxxxxxxxx |     27791070 |     27791078 |     27791077 |xxxxxxxxxxxxx |xxxxxxxxxxxxx |xxxxxxxxxxxxx |xxxxxxxxxxxxx |     58940196 |     58940203 |     58940202 |xxxxxxxxxxxxx |xxxxxxxxxxxxx |xxxxxxxxxxxxx |xxxxxxxxxxxxx |    122207084 |    122207091 |    122207090 |xxxxxxxxxxxxx |xxxxxxxxxxxxx |xxxxxxxxxxxxx |xxxxxxxxxxxxx |    256070199 |    256070206 |    256070205 |
bpred_bimod.misses                           31018 |        31012 |        31011 |xxxxxxxxxxxxx |xxxxxxxxxxxxx |xxxxxxxxxxxxx |xxxxxxxxxxxxx |        66880 |        66873 |        66871 |xxxxxxxxxxxxx |xxxxxxxxxxxxx |xxxxxxxxxxxxx |xxxxxxxxxxxxx |       143248 |       143246 |       143247 |xxxxxxxxxxxxx |xxxxxxxxxxxxx |xxxxxxxxxxxxx |xxxxxxxxxxxxx |       312314 |       312307 |       312307 |xxxxxxxxxxxxx |xxxxxxxxxxxxx |xxxxxxxxxxxxx |xxxxxxxxxxxxx |       667085 |       667078 |       667078 |xxxxxxxxxxxxx |xxxxxxxxxxxxx |xxxxxxxxxxxxx |xxxxxxxxxxxxx |      1403640 |      1403632 |      1403633 |xxxxxxxxxxxxx |xxxxxxxxxxxxx |xxxxxxxxxxxxx |xxxxxxxxxxxxx |      3013331 |      3013323 |      3013324 |xxxxxxxxxxxxx |xxxxxxxxxxxxx |xxxxxxxxxxxxx |xxxxxxxxxxxxx |      6352140 |      6352132 |      6352133 |xxxxxxxxxxxxx |xxxxxxxxxxxxx |xxxxxxxxxxxxx |xxxxxxxxxxxxx |     13261920 |     13261913 |     13261914 |xxxxxxxxxxxxx |xxxxxxxxxxxxx |xxxxxxxxxxxxx |xxxxxxxxxxxxx |     28190073 |     28190066 |     28190067 |xxxxxxxxxxxxx |xxxxxxxxxxxxx |xxxxxxxxxxxxx |xxxxxxxxxxxxx |     59007564 |     59007557 |     59007558 |
bpred_bimod.jr_hits                           4157 |         4157 |         4157 |xxxxxxxxxxxxx |xxxxxxxxxxxxx |xxxxxxxxxxxxx |xxxxxxxxxxxxx |         8261 |         8261 |         8261 |xxxxxxxxxxxxx |xxxxxxxxxxxxx |xxxxxxxxxxxxx |xxxxxxxxxxxxx |        16453 |        16453 |        16453 |xxxxxxxxxxxxx |xxxxxxxxxxxxx |xxxxxxxxxxxxx |xxxxxxxxxxxxx |        32837 |        32837 |        32837 |xxxxxxxxxxxxx |xxxxxxxxxxxxx |xxxxxxxxxxxxx |xxxxxxxxxxxxx |        65605 |        65605 |        65605 |xxxxxxxxxxxxx |xxxxxxxxxxxxx |xxxxxxxxxxxxx |xxxxxxxxxxxxx |       131141 |       131141 |       131141 |xxxxxxxxxxxxx |xxxxxxxxxxxxx |xxxxxxxxxxxxx |xxxxxxxxxxxxx |       262213 |       262213 |       262213 |xxxxxxxxxxxxx |xxxxxxxxxxxxx |xxxxxxxxxxxxx |xxxxxxxxxxxxx |       524357 |       524357 |       524357 |xxxxxxxxxxxxx |xxxxxxxxxxxxx |xxxxxxxxxxxxx |xxxxxxxxxxxxx |      1048648 |      1048648 |      1048648 |xxxxxxxxxxxxx |xxxxxxxxxxxxx |xxxxxxxxxxxxx |xxxxxxxxxxxxx |      2097224 |      2097224 |      2097224 |xxxxxxxxxxxxx |xxxxxxxxxxxxx |xxxxxxxxxxxxx |xxxxxxxxxxxxx |      4194376 |      4194376 |      4194376 |
bpred_bimod.jr_seen                           4157 |         4157 |         4157 |xxxxxxxxxxxxx |xxxxxxxxxxxxx |xxxxxxxxxxxxx |xxxxxxxxxxxxx |         8262 |         8262 |         8262 |xxxxxxxxxxxxx |xxxxxxxxxxxxx |xxxxxxxxxxxxx |xxxxxxxxxxxxx |        16454 |        16454 |        16454 |xxxxxxxxxxxxx |xxxxxxxxxxxxx |xxxxxxxxxxxxx |xxxxxxxxxxxxx |        32838 |        32838 |        32838 |xxxxxxxxxxxxx |xxxxxxxxxxxxx |xxxxxxxxxxxxx |xxxxxxxxxxxxx |        65606 |        65606 |        65606 |xxxxxxxxxxxxx |xxxxxxxxxxxxx |xxxxxxxxxxxxx |xxxxxxxxxxxxx |       131142 |       131142 |       131142 |xxxxxxxxxxxxx |xxxxxxxxxxxxx |xxxxxxxxxxxxx |xxxxxxxxxxxxx |       262214 |       262214 |       262214 |xxxxxxxxxxxxx |xxxxxxxxxxxxx |xxxxxxxxxxxxx |xxxxxxxxxxxxx |       524358 |       524358 |       524358 |xxxxxxxxxxxxx |xxxxxxxxxxxxx |xxxxxxxxxxxxx |xxxxxxxxxxxxx |      1048649 |      1048649 |      1048649 |xxxxxxxxxxxxx |xxxxxxxxxxxxx |xxxxxxxxxxxxx |xxxxxxxxxxxxx |      2097225 |      2097225 |      2097225 |xxxxxxxxxxxxx |xxxxxxxxxxxxx |xxxxxxxxxxxxx |xxxxxxxxxxxxx |      4194377 |      4194377 |      4194377 |
bpred_bimod.jr_non_ras_hits.PP                   0 |            0 |            0 |xxxxxxxxxxxxx |xxxxxxxxxxxxx |xxxxxxxxxxxxx |xxxxxxxxxxxxx |            0 |            0 |            0 |xxxxxxxxxxxxx |xxxxxxxxxxxxx |xxxxxxxxxxxxx |xxxxxxxxxxxxx |            0 |            0 |            0 |xxxxxxxxxxxxx |xxxxxxxxxxxxx |xxxxxxxxxxxxx |xxxxxxxxxxxxx |            0 |            0 |            0 |xxxxxxxxxxxxx |xxxxxxxxxxxxx |xxxxxxxxxxxxx |xxxxxxxxxxxxx |            0 |            0 |            0 |xxxxxxxxxxxxx |xxxxxxxxxxxxx |xxxxxxxxxxxxx |xxxxxxxxxxxxx |            0 |            0 |            0 |xxxxxxxxxxxxx |xxxxxxxxxxxxx |xxxxxxxxxxxxx |xxxxxxxxxxxxx |            0 |            0 |            0 |xxxxxxxxxxxxx |xxxxxxxxxxxxx |xxxxxxxxxxxxx |xxxxxxxxxxxxx |            0 |            0 |            0 |xxxxxxxxxxxxx |xxxxxxxxxxxxx |xxxxxxxxxxxxx |xxxxxxxxxxxxx |            0 |            0 |            0 |xxxxxxxxxxxxx |xxxxxxxxxxxxx |xxxxxxxxxxxxx |xxxxxxxxxxxxx |            0 |            0 |            0 |xxxxxxxxxxxxx |xxxxxxxxxxxxx |xxxxxxxxxxxxx |xxxxxxxxxxxxx |            0 |            0 |            0 |
bpred_bimod.jr_non_ras_seen.PP                   0 |            0 |            0 |xxxxxxxxxxxxx |xxxxxxxxxxxxx |xxxxxxxxxxxxx |xxxxxxxxxxxxx |            0 |            0 |            0 |xxxxxxxxxxxxx |xxxxxxxxxxxxx |xxxxxxxxxxxxx |xxxxxxxxxxxxx |            0 |            0 |            0 |xxxxxxxxxxxxx |xxxxxxxxxxxxx |xxxxxxxxxxxxx |xxxxxxxxxxxxx |            0 |            0 |            0 |xxxxxxxxxxxxx |xxxxxxxxxxxxx |xxxxxxxxxxxxx |xxxxxxxxxxxxx |            0 |            0 |            0 |xxxxxxxxxxxxx |xxxxxxxxxxxxx |xxxxxxxxxxxxx |xxxxxxxxxxxxx |            0 |            0 |            0 |xxxxxxxxxxxxx |xxxxxxxxxxxxx |xxxxxxxxxxxxx |xxxxxxxxxxxxx |            0 |            0 |            0 |xxxxxxxxxxxxx |xxxxxxxxxxxxx |xxxxxxxxxxxxx |xxxxxxxxxxxxx |            0 |            0 |            0 |xxxxxxxxxxxxx |xxxxxxxxxxxxx |xxxxxxxxxxxxx |xxxxxxxxxxxxx |            1 |            1 |            1 |xxxxxxxxxxxxx |xxxxxxxxxxxxx |xxxxxxxxxxxxx |xxxxxxxxxxxxx |            1 |            1 |            1 |xxxxxxxxxxxxx |xxxxxxxxxxxxx |xxxxxxxxxxxxx |xxxxxxxxxxxxx |            1 |            1 |            1 |
bpred_bimod.bpred_addr_rate                 0.8188 |       0.8188 |       0.8188 |xxxxxxxxxxxxx |xxxxxxxxxxxxx |xxxxxxxxxxxxx |xxxxxxxxxxxxx |       0.8191 |       0.8191 |       0.8191 |xxxxxxxxxxxxx |xxxxxxxxxxxxx |xxxxxxxxxxxxx |xxxxxxxxxxxxx |       0.8213 |       0.8213 |       0.8213 |xxxxxxxxxxxxx |xxxxxxxxxxxxx |xxxxxxxxxxxxx |xxxxxxxxxxxxx |       0.8157 |       0.8157 |       0.8157 |xxxxxxxxxxxxx |xxxxxxxxxxxxx |xxxxxxxxxxxxx |xxxxxxxxxxxxx |       0.8153 |       0.8153 |       0.8153 |xxxxxxxxxxxxx |xxxxxxxxxxxxx |xxxxxxxxxxxxx |xxxxxxxxxxxxx |       0.8181 |       0.8181 |       0.8181 |xxxxxxxxxxxxx |xxxxxxxxxxxxx |xxxxxxxxxxxxx |xxxxxxxxxxxxx |       0.8137 |       0.8137 |       0.8137 |xxxxxxxxxxxxx |xxxxxxxxxxxxx |xxxxxxxxxxxxx |xxxxxxxxxxxxx |       0.8140 |       0.8140 |       0.8140 |xxxxxxxxxxxxx |xxxxxxxxxxxxx |xxxxxxxxxxxxx |xxxxxxxxxxxxx |       0.8163 |       0.8163 |       0.8163 |xxxxxxxxxxxxx |xxxxxxxxxxxxx |xxxxxxxxxxxxx |xxxxxxxxxxxxx |       0.8126 |       0.8126 |       0.8126 |xxxxxxxxxxxxx |xxxxxxxxxxxxx |xxxxxxxxxxxxx |xxxxxxxxxxxxx |       0.8127 |       0.8127 |       0.8127 |
bpred_bimod.bpred_dir_rate                  0.8195 |       0.8195 |       0.8195 |xxxxxxxxxxxxx |xxxxxxxxxxxxx |xxxxxxxxxxxxx |xxxxxxxxxxxxx |       0.8194 |       0.8194 |       0.8194 |xxxxxxxxxxxxx |xxxxxxxxxxxxx |xxxxxxxxxxxxx |xxxxxxxxxxxxx |       0.8214 |       0.8214 |       0.8214 |xxxxxxxxxxxxx |xxxxxxxxxxxxx |xxxxxxxxxxxxx |xxxxxxxxxxxxx |       0.8158 |       0.8158 |       0.8158 |xxxxxxxxxxxxx |xxxxxxxxxxxxx |xxxxxxxxxxxxx |xxxxxxxxxxxxx |       0.8153 |       0.8153 |       0.8153 |xxxxxxxxxxxxx |xxxxxxxxxxxxx |xxxxxxxxxxxxx |xxxxxxxxxxxxx |       0.8181 |       0.8181 |       0.8181 |xxxxxxxxxxxxx |xxxxxxxxxxxxx |xxxxxxxxxxxxx |xxxxxxxxxxxxx |       0.8137 |       0.8137 |       0.8137 |xxxxxxxxxxxxx |xxxxxxxxxxxxx |xxxxxxxxxxxxx |xxxxxxxxxxxxx |       0.8140 |       0.8140 |       0.8140 |xxxxxxxxxxxxx |xxxxxxxxxxxxx |xxxxxxxxxxxxx |xxxxxxxxxxxxx |       0.8163 |       0.8163 |       0.8163 |xxxxxxxxxxxxx |xxxxxxxxxxxxx |xxxxxxxxxxxxx |xxxxxxxxxxxxx |       0.8126 |       0.8126 |       0.8126 |xxxxxxxxxxxxx |xxxxxxxxxxxxx |xxxxxxxxxxxxx |xxxxxxxxxxxxx |       0.8127 |       0.8127 |       0.8127 |
bpred_bimod.bpred_jr_rate                   1.0000 |       1.0000 |       1.0000 |xxxxxxxxxxxxx |xxxxxxxxxxxxx |xxxxxxxxxxxxx |xxxxxxxxxxxxx |       0.9999 |       0.9999 |       0.9999 |xxxxxxxxxxxxx |xxxxxxxxxxxxx |xxxxxxxxxxxxx |xxxxxxxxxxxxx |       0.9999 |       0.9999 |       0.9999 |xxxxxxxxxxxxx |xxxxxxxxxxxxx |xxxxxxxxxxxxx |xxxxxxxxxxxxx |       1.0000 |       1.0000 |       1.0000 |xxxxxxxxxxxxx |xxxxxxxxxxxxx |xxxxxxxxxxxxx |xxxxxxxxxxxxx |       1.0000 |       1.0000 |       1.0000 |xxxxxxxxxxxxx |xxxxxxxxxxxxx |xxxxxxxxxxxxx |xxxxxxxxxxxxx |       1.0000 |       1.0000 |       1.0000 |xxxxxxxxxxxxx |xxxxxxxxxxxxx |xxxxxxxxxxxxx |xxxxxxxxxxxxx |       1.0000 |       1.0000 |       1.0000 |xxxxxxxxxxxxx |xxxxxxxxxxxxx |xxxxxxxxxxxxx |xxxxxxxxxxxxx |       1.0000 |       1.0000 |       1.0000 |xxxxxxxxxxxxx |xxxxxxxxxxxxx |xxxxxxxxxxxxx |xxxxxxxxxxxxx |       1.0000 |       1.0000 |       1.0000 |xxxxxxxxxxxxx |xxxxxxxxxxxxx |xxxxxxxxxxxxx |xxxxxxxxxxxxx |       1.0000 |       1.0000 |       1.0000 |xxxxxxxxxxxxx |xxxxxxxxxxxxx |xxxxxxxxxxxxx |xxxxxxxxxxxxx |       1.0000 |       1.0000 |       1.0000 |
bpred_bimod.bpred_jr_non_ras_rate.PP       <error: |      <error: |      <error: |xxxxxxxxxxxxx |xxxxxxxxxxxxx |xxxxxxxxxxxxx |xxxxxxxxxxxxx |      <error: |      <error: |      <error: |xxxxxxxxxxxxx |xxxxxxxxxxxxx |xxxxxxxxxxxxx |xxxxxxxxxxxxx |      <error: |      <error: |      <error: |xxxxxxxxxxxxx |xxxxxxxxxxxxx |xxxxxxxxxxxxx |xxxxxxxxxxxxx |      <error: |      <error: |      <error: |xxxxxxxxxxxxx |xxxxxxxxxxxxx |xxxxxxxxxxxxx |xxxxxxxxxxxxx |      <error: |      <error: |      <error: |xxxxxxxxxxxxx |xxxxxxxxxxxxx |xxxxxxxxxxxxx |xxxxxxxxxxxxx |      <error: |      <error: |      <error: |xxxxxxxxxxxxx |xxxxxxxxxxxxx |xxxxxxxxxxxxx |xxxxxxxxxxxxx |      <error: |      <error: |      <error: |xxxxxxxxxxxxx |xxxxxxxxxxxxx |xxxxxxxxxxxxx |xxxxxxxxxxxxx |      <error: |      <error: |      <error: |xxxxxxxxxxxxx |xxxxxxxxxxxxx |xxxxxxxxxxxxx |xxxxxxxxxxxxx |       0.0000 |       0.0000 |       0.0000 |xxxxxxxxxxxxx |xxxxxxxxxxxxx |xxxxxxxxxxxxx |xxxxxxxxxxxxx |       0.0000 |       0.0000 |       0.0000 |xxxxxxxxxxxxx |xxxxxxxxxxxxx |xxxxxxxxxxxxx |xxxxxxxxxxxxx |       0.0000 |       0.0000 |       0.0000 |
bpred_bimod.retstack_pushes                   4159 |         4159 |         4159 |xxxxxxxxxxxxx |xxxxxxxxxxxxx |xxxxxxxxxxxxx |xxxxxxxxxxxxx |         8264 |         8264 |         8264 |xxxxxxxxxxxxx |xxxxxxxxxxxxx |xxxxxxxxxxxxx |xxxxxxxxxxxxx |        16456 |        16456 |        16456 |xxxxxxxxxxxxx |xxxxxxxxxxxxx |xxxxxxxxxxxxx |xxxxxxxxxxxxx |        32840 |        32840 |        32840 |xxxxxxxxxxxxx |xxxxxxxxxxxxx |xxxxxxxxxxxxx |xxxxxxxxxxxxx |        65608 |        65608 |        65608 |xxxxxxxxxxxxx |xxxxxxxxxxxxx |xxxxxxxxxxxxx |xxxxxxxxxxxxx |       131144 |       131144 |       131144 |xxxxxxxxxxxxx |xxxxxxxxxxxxx |xxxxxxxxxxxxx |xxxxxxxxxxxxx |       262216 |       262216 |       262216 |xxxxxxxxxxxxx |xxxxxxxxxxxxx |xxxxxxxxxxxxx |xxxxxxxxxxxxx |       524360 |       524360 |       524360 |xxxxxxxxxxxxx |xxxxxxxxxxxxx |xxxxxxxxxxxxx |xxxxxxxxxxxxx |      1048650 |      1048650 |      1048650 |xxxxxxxxxxxxx |xxxxxxxxxxxxx |xxxxxxxxxxxxx |xxxxxxxxxxxxx |      2097226 |      2097226 |      2097226 |xxxxxxxxxxxxx |xxxxxxxxxxxxx |xxxxxxxxxxxxx |xxxxxxxxxxxxx |      4194378 |      4194378 |      4194378 |
bpred_bimod.retstack_pops                     4157 |         4157 |         4157 |xxxxxxxxxxxxx |xxxxxxxxxxxxx |xxxxxxxxxxxxx |xxxxxxxxxxxxx |         8262 |         8262 |         8262 |xxxxxxxxxxxxx |xxxxxxxxxxxxx |xxxxxxxxxxxxx |xxxxxxxxxxxxx |        16454 |        16454 |        16454 |xxxxxxxxxxxxx |xxxxxxxxxxxxx |xxxxxxxxxxxxx |xxxxxxxxxxxxx |        32838 |        32838 |        32838 |xxxxxxxxxxxxx |xxxxxxxxxxxxx |xxxxxxxxxxxxx |xxxxxxxxxxxxx |        65606 |        65606 |        65606 |xxxxxxxxxxxxx |xxxxxxxxxxxxx |xxxxxxxxxxxxx |xxxxxxxxxxxxx |       131142 |       131142 |       131142 |xxxxxxxxxxxxx |xxxxxxxxxxxxx |xxxxxxxxxxxxx |xxxxxxxxxxxxx |       262214 |       262214 |       262214 |xxxxxxxxxxxxx |xxxxxxxxxxxxx |xxxxxxxxxxxxx |xxxxxxxxxxxxx |       524358 |       524358 |       524358 |xxxxxxxxxxxxx |xxxxxxxxxxxxx |xxxxxxxxxxxxx |xxxxxxxxxxxxx |      1048648 |      1048648 |      1048648 |xxxxxxxxxxxxx |xxxxxxxxxxxxx |xxxxxxxxxxxxx |xxxxxxxxxxxxx |      2097224 |      2097224 |      2097224 |xxxxxxxxxxxxx |xxxxxxxxxxxxx |xxxxxxxxxxxxx |xxxxxxxxxxxxx |      4194376 |      4194376 |      4194376 |
bpred_bimod.used_ras.PP                       4157 |         4157 |         4157 |xxxxxxxxxxxxx |xxxxxxxxxxxxx |xxxxxxxxxxxxx |xxxxxxxxxxxxx |         8262 |         8262 |         8262 |xxxxxxxxxxxxx |xxxxxxxxxxxxx |xxxxxxxxxxxxx |xxxxxxxxxxxxx |        16454 |        16454 |        16454 |xxxxxxxxxxxxx |xxxxxxxxxxxxx |xxxxxxxxxxxxx |xxxxxxxxxxxxx |        32838 |        32838 |        32838 |xxxxxxxxxxxxx |xxxxxxxxxxxxx |xxxxxxxxxxxxx |xxxxxxxxxxxxx |        65606 |        65606 |        65606 |xxxxxxxxxxxxx |xxxxxxxxxxxxx |xxxxxxxxxxxxx |xxxxxxxxxxxxx |       131142 |       131142 |       131142 |xxxxxxxxxxxxx |xxxxxxxxxxxxx |xxxxxxxxxxxxx |xxxxxxxxxxxxx |       262214 |       262214 |       262214 |xxxxxxxxxxxxx |xxxxxxxxxxxxx |xxxxxxxxxxxxx |xxxxxxxxxxxxx |       524358 |       524358 |       524358 |xxxxxxxxxxxxx |xxxxxxxxxxxxx |xxxxxxxxxxxxx |xxxxxxxxxxxxx |      1048648 |      1048648 |      1048648 |xxxxxxxxxxxxx |xxxxxxxxxxxxx |xxxxxxxxxxxxx |xxxxxxxxxxxxx |      2097224 |      2097224 |      2097224 |xxxxxxxxxxxxx |xxxxxxxxxxxxx |xxxxxxxxxxxxx |xxxxxxxxxxxxx |      4194376 |      4194376 |      4194376 |
bpred_bimod.ras_hits.PP                       4157 |         4157 |         4157 |xxxxxxxxxxxxx |xxxxxxxxxxxxx |xxxxxxxxxxxxx |xxxxxxxxxxxxx |         8261 |         8261 |         8261 |xxxxxxxxxxxxx |xxxxxxxxxxxxx |xxxxxxxxxxxxx |xxxxxxxxxxxxx |        16453 |        16453 |        16453 |xxxxxxxxxxxxx |xxxxxxxxxxxxx |xxxxxxxxxxxxx |xxxxxxxxxxxxx |        32837 |        32837 |        32837 |xxxxxxxxxxxxx |xxxxxxxxxxxxx |xxxxxxxxxxxxx |xxxxxxxxxxxxx |        65605 |        65605 |        65605 |xxxxxxxxxxxxx |xxxxxxxxxxxxx |xxxxxxxxxxxxx |xxxxxxxxxxxxx |       131141 |       131141 |       131141 |xxxxxxxxxxxxx |xxxxxxxxxxxxx |xxxxxxxxxxxxx |xxxxxxxxxxxxx |       262213 |       262213 |       262213 |xxxxxxxxxxxxx |xxxxxxxxxxxxx |xxxxxxxxxxxxx |xxxxxxxxxxxxx |       524357 |       524357 |       524357 |xxxxxxxxxxxxx |xxxxxxxxxxxxx |xxxxxxxxxxxxx |xxxxxxxxxxxxx |      1048648 |      1048648 |      1048648 |xxxxxxxxxxxxx |xxxxxxxxxxxxx |xxxxxxxxxxxxx |xxxxxxxxxxxxx |      2097224 |      2097224 |      2097224 |xxxxxxxxxxxxx |xxxxxxxxxxxxx |xxxxxxxxxxxxx |xxxxxxxxxxxxx |      4194376 |      4194376 |      4194376 |
bpred_bimod.ras_rate.PP                     1.0000 |       1.0000 |       1.0000 |xxxxxxxxxxxxx |xxxxxxxxxxxxx |xxxxxxxxxxxxx |xxxxxxxxxxxxx |       0.9999 |       0.9999 |       0.9999 |xxxxxxxxxxxxx |xxxxxxxxxxxxx |xxxxxxxxxxxxx |xxxxxxxxxxxxx |       0.9999 |       0.9999 |       0.9999 |xxxxxxxxxxxxx |xxxxxxxxxxxxx |xxxxxxxxxxxxx |xxxxxxxxxxxxx |       1.0000 |       1.0000 |       1.0000 |xxxxxxxxxxxxx |xxxxxxxxxxxxx |xxxxxxxxxxxxx |xxxxxxxxxxxxx |       1.0000 |       1.0000 |       1.0000 |xxxxxxxxxxxxx |xxxxxxxxxxxxx |xxxxxxxxxxxxx |xxxxxxxxxxxxx |       1.0000 |       1.0000 |       1.0000 |xxxxxxxxxxxxx |xxxxxxxxxxxxx |xxxxxxxxxxxxx |xxxxxxxxxxxxx |       1.0000 |       1.0000 |       1.0000 |xxxxxxxxxxxxx |xxxxxxxxxxxxx |xxxxxxxxxxxxx |xxxxxxxxxxxxx |       1.0000 |       1.0000 |       1.0000 |xxxxxxxxxxxxx |xxxxxxxxxxxxx |xxxxxxxxxxxxx |xxxxxxxxxxxxx |       1.0000 |       1.0000 |       1.0000 |xxxxxxxxxxxxx |xxxxxxxxxxxxx |xxxxxxxxxxxxx |xxxxxxxxxxxxx |       1.0000 |       1.0000 |       1.0000 |xxxxxxxxxxxxx |xxxxxxxxxxxxx |xxxxxxxxxxxxx |xxxxxxxxxxxxx |       1.0000 |       1.0000 |       1.0000 |
bpred_2lev.lookups                   xxxxxxxxxxxxx |xxxxxxxxxxxxx |xxxxxxxxxxxxx |       171845 |       171845 |       171845 |       171845 |xxxxxxxxxxxxx |xxxxxxxxxxxxx |xxxxxxxxxxxxx |       370324 |       370324 |       370324 |       370324 |xxxxxxxxxxxxx |xxxxxxxxxxxxx |xxxxxxxxxxxxx |       802158 |       802158 |       802158 |       802158 |xxxxxxxxxxxxx |xxxxxxxxxxxxx |xxxxxxxxxxxxx |      1695414 |      1695414 |      1695414 |      1695414 |xxxxxxxxxxxxx |xxxxxxxxxxxxx |xxxxxxxxxxxxx |      3612339 |      3612339 |      3612339 |      3612339 |xxxxxxxxxxxxx |xxxxxxxxxxxxx |xxxxxxxxxxxxx |      7715673 |      7715673 |      7715673 |      7715673 |xxxxxxxxxxxxx |xxxxxxxxxxxxx |xxxxxxxxxxxxx |     16178772 |     16178772 |     16178772 |     16178772 |xxxxxxxxxxxxx |xxxxxxxxxxxxx |xxxxxxxxxxxxx |     34143210 |     34143210 |     34143210 |     34143210 |xxxxxxxxxxxxx |xxxxxxxxxxxxx |xxxxxxxxxxxxx |     72202116 |     72202116 |     72202116 |     72202116 |xxxxxxxxxxxxx |xxxxxxxxxxxxx |xxxxxxxxxxxxx |    150397157 |    150397157 |    150397157 |    150397157 |xxxxxxxxxxxxx |xxxxxxxxxxxxx |xxxxxxxxxxxxx |    315077763 |    315077763 |    315077763 |    315077763 |
[...]
bpred_2lev.retstack_pops             xxxxxxxxxxxxx |xxxxxxxxxxxxx |xxxxxxxxxxxxx |         4157 |         4157 |         4157 |         4157 |xxxxxxxxxxxxx |xxxxxxxxxxxxx |xxxxxxxxxxxxx |         8262 |         8262 |         8262 |         8262 |xxxxxxxxxxxxx |xxxxxxxxxxxxx |xxxxxxxxxxxxx |        16454 |        16454 |        16454 |        16454 |xxxxxxxxxxxxx |xxxxxxxxxxxxx |xxxxxxxxxxxxx |        32838 |        32838 |        32838 |        32838 |xxxxxxxxxxxxx |xxxxxxxxxxxxx |xxxxxxxxxxxxx |        65606 |        65606 |        65606 |        65606 |xxxxxxxxxxxxx |xxxxxxxxxxxxx |xxxxxxxxxxxxx |       131142 |       131142 |       131142 |       131142 |xxxxxxxxxxxxx |xxxxxxxxxxxxx |xxxxxxxxxxxxx |       262214 |       262214 |       262214 |       262214 |xxxxxxxxxxxxx |xxxxxxxxxxxxx |xxxxxxxxxxxxx |       524358 |       524358 |       524358 |       524358 |xxxxxxxxxxxxx |xxxxxxxxxxxxx |xxxxxxxxxxxxx |      1048648 |      1048648 |      1048648 |      1048648 |xxxxxxxxxxxxx |xxxxxxxxxxxxx |xxxxxxxxxxxxx |      2097224 |      2097224 |      2097224 |      2097224 |xxxxxxxxxxxxx |xxxxxxxxxxxxx |xxxxxxxxxxxxx |      4194376 |      4194376 |      4194376 |      4194376 |
bpred_2lev.used_ras.PP               xxxxxxxxxxxxx |xxxxxxxxxxxxx |xxxxxxxxxxxxx |         4157 |         4157 |         4157 |         4157 |xxxxxxxxxxxxx |xxxxxxxxxxxxx |xxxxxxxxxxxxx |         8262 |         8262 |         8262 |         8262 |xxxxxxxxxxxxx |xxxxxxxxxxxxx |xxxxxxxxxxxxx |        16454 |        16454 |        16454 |        16454 |xxxxxxxxxxxxx |xxxxxxxxxxxxx |xxxxxxxxxxxxx |        32838 |        32838 |        32838 |        32838 |xxxxxxxxxxxxx |xxxxxxxxxxxxx |xxxxxxxxxxxxx |        65606 |        65606 |        65606 |        65606 |xxxxxxxxxxxxx |xxxxxxxxxxxxx |xxxxxxxxxxxxx |       131142 |       131142 |       131142 |       131142 |xxxxxxxxxxxxx |xxxxxxxxxxxxx |xxxxxxxxxxxxx |       262214 |       262214 |       262214 |       262214 |xxxxxxxxxxxxx |xxxxxxxxxxxxx |xxxxxxxxxxxxx |       524358 |       524358 |       524358 |       524358 |xxxxxxxxxxxxx |xxxxxxxxxxxxx |xxxxxxxxxxxxx |      1048648 |      1048648 |      1048648 |      1048648 |xxxxxxxxxxxxx |xxxxxxxxxxxxx |xxxxxxxxxxxxx |      2097224 |      2097224 |      2097224 |      2097224 |xxxxxxxxxxxxx |xxxxxxxxxxxxx |xxxxxxxxxxxxx |      4194376 |      4194376 |      4194376 |      4194376 |
bpred_2lev.ras_hits.PP               xxxxxxxxxxxxx |xxxxxxxxxxxxx |xxxxxxxxxxxxx |         4157 |         4157 |         4157 |         4157 |xxxxxxxxxxxxx |xxxxxxxxxxxxx |xxxxxxxxxxxxx |         8261 |         8261 |         8261 |         8261 |xxxxxxxxxxxxx |xxxxxxxxxxxxx |xxxxxxxxxxxxx |        16453 |        16453 |        16453 |        16453 |xxxxxxxxxxxxx |xxxxxxxxxxxxx |xxxxxxxxxxxxx |        32837 |        32837 |        32837 |        32837 |xxxxxxxxxxxxx |xxxxxxxxxxxxx |xxxxxxxxxxxxx |        65605 |        65605 |        65605 |        65605 |xxxxxxxxxxxxx |xxxxxxxxxxxxx |xxxxxxxxxxxxx |       131141 |       131141 |       131141 |       131141 |xxxxxxxxxxxxx |xxxxxxxxxxxxx |xxxxxxxxxxxxx |       262213 |       262213 |       262213 |       262213 |xxxxxxxxxxxxx |xxxxxxxxxxxxx |xxxxxxxxxxxxx |       524357 |       524357 |       524357 |       524357 |xxxxxxxxxxxxx |xxxxxxxxxxxxx |xxxxxxxxxxxxx |      1048648 |      1048648 |      1048648 |      1048648 |xxxxxxxxxxxxx |xxxxxxxxxxxxx |xxxxxxxxxxxxx |      2097224 |      2097224 |      2097224 |      2097224 |xxxxxxxxxxxxx |xxxxxxxxxxxxx |xxxxxxxxxxxxx |      4194376 |      4194376 |      4194376 |      4194376 |
bpred_2lev.ras_rate.PP               xxxxxxxxxxxxx |xxxxxxxxxxxxx |xxxxxxxxxxxxx |       1.0000 |       1.0000 |       1.0000 |       1.0000 |xxxxxxxxxxxxx |xxxxxxxxxxxxx |xxxxxxxxxxxxx |       0.9999 |       0.9999 |       0.9999 |       0.9999 |xxxxxxxxxxxxx |xxxxxxxxxxxxx |xxxxxxxxxxxxx |       0.9999 |       0.9999 |       0.9999 |       0.9999 |xxxxxxxxxxxxx |xxxxxxxxxxxxx |xxxxxxxxxxxxx |       1.0000 |       1.0000 |       1.0000 |       1.0000 |xxxxxxxxxxxxx |xxxxxxxxxxxxx |xxxxxxxxxxxxx |       1.0000 |       1.0000 |       1.0000 |       1.0000 |xxxxxxxxxxxxx |xxxxxxxxxxxxx |xxxxxxxxxxxxx |       1.0000 |       1.0000 |       1.0000 |       1.0000 |xxxxxxxxxxxxx |xxxxxxxxxxxxx |xxxxxxxxxxxxx |       1.0000 |       1.0000 |       1.0000 |       1.0000 |xxxxxxxxxxxxx |xxxxxxxxxxxxx |xxxxxxxxxxxxx |       1.0000 |       1.0000 |       1.0000 |       1.0000 |xxxxxxxxxxxxx |xxxxxxxxxxxxx |xxxxxxxxxxxxx |       1.0000 |       1.0000 |       1.0000 |       1.0000 |xxxxxxxxxxxxx |xxxxxxxxxxxxx |xxxxxxxxxxxxx |       1.0000 |       1.0000 |       1.0000 |       1.0000 |xxxxxxxxxxxxx |xxxxxxxxxxxxx |xxxxxxxxxxxxx |       1.0000 |       1.0000 |       1.0000 |       1.0000 |

Command list: 
	sslittle-na-sstrix-gcc -Wall -O3 -funroll-loops -finline-functions  -DRANDOM_SIZE=4096 -DOFFSET=1 -DSORT=memory_tuned_heapsort sorts/memory_tuned_heapsort1548609840.c simpleMain.c -o memory_tuned_heapsort1387582298
	sim-cache -cache:dl1 dl1:256:32:1:l -cache:dl2 dl2:131072:32:1:l -cache:il1 il1:256:32:1:l -cache:il2 dl2 memory_tuned_heapsort1387582298
	sim-cache -cache:dl1 dl1:256:32:1:l -cache:dl2 dl2:65536:32:1:l -cache:il1 il1:256:32:1:l -cache:il2 dl2 memory_tuned_heapsort1387582298
	sim-cache -cache:dl1 dl1:1:32:256:l -cache:dl2 dl2:1:32:131072:l -cache:il1 il1:1:32:256:l -cache:il2 dl2 memory_tuned_heapsort1387582298
	sim-cache -cache:dl1 dl1:1:32:256:l -cache:dl2 dl2:1:32:65536:l -cache:il1 il1:1:32:256:l -cache:il2 dl2 memory_tuned_heapsort1387582298
	sim-bpred -bpred bimod -bpred:bimod 512 memory_tuned_heapsort1387582298
	sim-bpred -bpred bimod -bpred:bimod 1024 memory_tuned_heapsort1387582298
	sim-bpred -bpred bimod -bpred:bimod 2048 memory_tuned_heapsort1387582298
	sim-bpred -bpred 2lev -bpred:2lev 1 512 10 1 memory_tuned_heapsort1387582298
	sim-bpred -bpred 2lev -bpred:2lev 1 1024 10 1 memory_tuned_heapsort1387582298
	sim-bpred -bpred 2lev -bpred:2lev 1 2048 10 1 memory_tuned_heapsort1387582298
	sim-bpred -bpred 2lev -bpred:2lev 1 4096 10 1 memory_tuned_heapsort1387582298
	sslittle-na-sstrix-gcc -Wall -O3 -funroll-loops -finline-functions  -DRANDOM_SIZE=8192 -DOFFSET=1 -DSORT=memory_tuned_heapsort sorts/memory_tuned_heapsort1548609840.c simpleMain.c -o memory_tuned_heapsort1387582298
	sim-cache -cache:dl1 dl1:256:32:1:l -cache:dl2 dl2:131072:32:1:l -cache:il1 il1:256:32:1:l -cache:il2 dl2 memory_tuned_heapsort1387582298
	sim-cache -cache:dl1 dl1:256:32:1:l -cache:dl2 dl2:65536:32:1:l -cache:il1 il1:256:32:1:l -cache:il2 dl2 memory_tuned_heapsort1387582298
	sim-cache -cache:dl1 dl1:1:32:256:l -cache:dl2 dl2:1:32:131072:l -cache:il1 il1:1:32:256:l -cache:il2 dl2 memory_tuned_heapsort1387582298
	sim-cache -cache:dl1 dl1:1:32:256:l -cache:dl2 dl2:1:32:65536:l -cache:il1 il1:1:32:256:l -cache:il2 dl2 memory_tuned_heapsort1387582298
	sim-bpred -bpred bimod -bpred:bimod 512 memory_tuned_heapsort1387582298
	sim-bpred -bpred bimod -bpred:bimod 1024 memory_tuned_heapsort1387582298
	sim-bpred -bpred bimod -bpred:bimod 2048 memory_tuned_heapsort1387582298
	sim-bpred -bpred 2lev -bpred:2lev 1 512 10 1 memory_tuned_heapsort1387582298
	sim-bpred -bpred 2lev -bpred:2lev 1 1024 10 1 memory_tuned_heapsort1387582298
	sim-bpred -bpred 2lev -bpred:2lev 1 2048 10 1 memory_tuned_heapsort1387582298
	sim-bpred -bpred 2lev -bpred:2lev 1 4096 10 1 memory_tuned_heapsort1387582298
	sslittle-na-sstrix-gcc -Wall -O3 -funroll-loops -finline-functions  -DRANDOM_SIZE=16384 -DOFFSET=1 -DSORT=memory_tuned_heapsort sorts/memory_tuned_heapsort1548609840.c simpleMain.c -o memory_tuned_heapsort1387582298
	sim-cache -cache:dl1 dl1:256:32:1:l -cache:dl2 dl2:131072:32:1:l -cache:il1 il1:256:32:1:l -cache:il2 dl2 memory_tuned_heapsort1387582298
	sim-cache -cache:dl1 dl1:256:32:1:l -cache:dl2 dl2:65536:32:1:l -cache:il1 il1:256:32:1:l -cache:il2 dl2 memory_tuned_heapsort1387582298
	sim-cache -cache:dl1 dl1:1:32:256:l -cache:dl2 dl2:1:32:131072:l -cache:il1 il1:1:32:256:l -cache:il2 dl2 memory_tuned_heapsort1387582298
	sim-cache -cache:dl1 dl1:1:32:256:l -cache:dl2 dl2:1:32:65536:l -cache:il1 il1:1:32:256:l -cache:il2 dl2 memory_tuned_heapsort1387582298
	sim-bpred -bpred bimod -bpred:bimod 512 memory_tuned_heapsort1387582298
	sim-bpred -bpred bimod -bpred:bimod 1024 memory_tuned_heapsort1387582298
	sim-bpred -bpred bimod -bpred:bimod 2048 memory_tuned_heapsort1387582298
	sim-bpred -bpred 2lev -bpred:2lev 1 512 10 1 memory_tuned_heapsort1387582298
	sim-bpred -bpred 2lev -bpred:2lev 1 1024 10 1 memory_tuned_heapsort1387582298
	sim-bpred -bpred 2lev -bpred:2lev 1 2048 10 1 memory_tuned_heapsort1387582298
	sim-bpred -bpred 2lev -bpred:2lev 1 4096 10 1 memory_tuned_heapsort1387582298
	sslittle-na-sstrix-gcc -Wall -O3 -funroll-loops -finline-functions  -DRANDOM_SIZE=32768 -DOFFSET=1 -DSORT=memory_tuned_heapsort sorts/memory_tuned_heapsort1548609840.c simpleMain.c -o memory_tuned_heapsort1387582298
	sim-cache -cache:dl1 dl1:256:32:1:l -cache:dl2 dl2:131072:32:1:l -cache:il1 il1:256:32:1:l -cache:il2 dl2 memory_tuned_heapsort1387582298
	sim-cache -cache:dl1 dl1:256:32:1:l -cache:dl2 dl2:65536:32:1:l -cache:il1 il1:256:32:1:l -cache:il2 dl2 memory_tuned_heapsort1387582298
	sim-cache -cache:dl1 dl1:1:32:256:l -cache:dl2 dl2:1:32:131072:l -cache:il1 il1:1:32:256:l -cache:il2 dl2 memory_tuned_heapsort1387582298
	sim-cache -cache:dl1 dl1:1:32:256:l -cache:dl2 dl2:1:32:65536:l -cache:il1 il1:1:32:256:l -cache:il2 dl2 memory_tuned_heapsort1387582298
	sim-bpred -bpred bimod -bpred:bimod 512 memory_tuned_heapsort1387582298
	sim-bpred -bpred bimod -bpred:bimod 1024 memory_tuned_heapsort1387582298
	sim-bpred -bpred bimod -bpred:bimod 2048 memory_tuned_heapsort1387582298
	sim-bpred -bpred 2lev -bpred:2lev 1 512 10 1 memory_tuned_heapsort1387582298
	sim-bpred -bpred 2lev -bpred:2lev 1 1024 10 1 memory_tuned_heapsort1387582298
	sim-bpred -bpred 2lev -bpred:2lev 1 2048 10 1 memory_tuned_heapsort1387582298
	sim-bpred -bpred 2lev -bpred:2lev 1 4096 10 1 memory_tuned_heapsort1387582298
	sslittle-na-sstrix-gcc -Wall -O3 -funroll-loops -finline-functions  -DRANDOM_SIZE=65536 -DOFFSET=1 -DSORT=memory_tuned_heapsort sorts/memory_tuned_heapsort1548609840.c simpleMain.c -o memory_tuned_heapsort1387582298
	sim-cache -cache:dl1 dl1:256:32:1:l -cache:dl2 dl2:131072:32:1:l -cache:il1 il1:256:32:1:l -cache:il2 dl2 memory_tuned_heapsort1387582298
	sim-cache -cache:dl1 dl1:256:32:1:l -cache:dl2 dl2:65536:32:1:l -cache:il1 il1:256:32:1:l -cache:il2 dl2 memory_tuned_heapsort1387582298
	sim-cache -cache:dl1 dl1:1:32:256:l -cache:dl2 dl2:1:32:131072:l -cache:il1 il1:1:32:256:l -cache:il2 dl2 memory_tuned_heapsort1387582298
	sim-cache -cache:dl1 dl1:1:32:256:l -cache:dl2 dl2:1:32:65536:l -cache:il1 il1:1:32:256:l -cache:il2 dl2 memory_tuned_heapsort1387582298
	sim-bpred -bpred bimod -bpred:bimod 512 memory_tuned_heapsort1387582298
	sim-bpred -bpred bimod -bpred:bimod 1024 memory_tuned_heapsort1387582298
	sim-bpred -bpred bimod -bpred:bimod 2048 memory_tuned_heapsort1387582298
	sim-bpred -bpred 2lev -bpred:2lev 1 512 10 1 memory_tuned_heapsort1387582298
	sim-bpred -bpred 2lev -bpred:2lev 1 1024 10 1 memory_tuned_heapsort1387582298
	sim-bpred -bpred 2lev -bpred:2lev 1 2048 10 1 memory_tuned_heapsort1387582298
	sim-bpred -bpred 2lev -bpred:2lev 1 4096 10 1 memory_tuned_heapsort1387582298
	sslittle-na-sstrix-gcc -Wall -O3 -funroll-loops -finline-functions  -DRANDOM_SIZE=131072 -DOFFSET=1 -DSORT=memory_tuned_heapsort sorts/memory_tuned_heapsort1548609840.c simpleMain.c -o memory_tuned_heapsort1387582298
	sim-cache -cache:dl1 dl1:256:32:1:l -cache:dl2 dl2:131072:32:1:l -cache:il1 il1:256:32:1:l -cache:il2 dl2 memory_tuned_heapsort1387582298
	sim-cache -cache:dl1 dl1:256:32:1:l -cache:dl2 dl2:65536:32:1:l -cache:il1 il1:256:32:1:l -cache:il2 dl2 memory_tuned_heapsort1387582298
	sim-cache -cache:dl1 dl1:1:32:256:l -cache:dl2 dl2:1:32:131072:l -cache:il1 il1:1:32:256:l -cache:il2 dl2 memory_tuned_heapsort1387582298
	sim-cache -cache:dl1 dl1:1:32:256:l -cache:dl2 dl2:1:32:65536:l -cache:il1 il1:1:32:256:l -cache:il2 dl2 memory_tuned_heapsort1387582298
	sim-bpred -bpred bimod -bpred:bimod 512 memory_tuned_heapsort1387582298
	sim-bpred -bpred bimod -bpred:bimod 1024 memory_tuned_heapsort1387582298
	sim-bpred -bpred bimod -bpred:bimod 2048 memory_tuned_heapsort1387582298
	sim-bpred -bpred 2lev -bpred:2lev 1 512 10 1 memory_tuned_heapsort1387582298
	sim-bpred -bpred 2lev -bpred:2lev 1 1024 10 1 memory_tuned_heapsort1387582298
	sim-bpred -bpred 2lev -bpred:2lev 1 2048 10 1 memory_tuned_heapsort1387582298
	sim-bpred -bpred 2lev -bpred:2lev 1 4096 10 1 memory_tuned_heapsort1387582298
	sslittle-na-sstrix-gcc -Wall -O3 -funroll-loops -finline-functions  -DRANDOM_SIZE=262144 -DOFFSET=1 -DSORT=memory_tuned_heapsort sorts/memory_tuned_heapsort1548609840.c simpleMain.c -o memory_tuned_heapsort1387582298
	sim-cache -cache:dl1 dl1:256:32:1:l -cache:dl2 dl2:131072:32:1:l -cache:il1 il1:256:32:1:l -cache:il2 dl2 memory_tuned_heapsort1387582298
	sim-cache -cache:dl1 dl1:256:32:1:l -cache:dl2 dl2:65536:32:1:l -cache:il1 il1:256:32:1:l -cache:il2 dl2 memory_tuned_heapsort1387582298
	sim-cache -cache:dl1 dl1:1:32:256:l -cache:dl2 dl2:1:32:131072:l -cache:il1 il1:1:32:256:l -cache:il2 dl2 memory_tuned_heapsort1387582298
	sim-cache -cache:dl1 dl1:1:32:256:l -cache:dl2 dl2:1:32:65536:l -cache:il1 il1:1:32:256:l -cache:il2 dl2 memory_tuned_heapsort1387582298
	sim-bpred -bpred bimod -bpred:bimod 512 memory_tuned_heapsort1387582298
	sim-bpred -bpred bimod -bpred:bimod 1024 memory_tuned_heapsort1387582298
	sim-bpred -bpred bimod -bpred:bimod 2048 memory_tuned_heapsort1387582298
	sim-bpred -bpred 2lev -bpred:2lev 1 512 10 1 memory_tuned_heapsort1387582298
	sim-bpred -bpred 2lev -bpred:2lev 1 1024 10 1 memory_tuned_heapsort1387582298
	sim-bpred -bpred 2lev -bpred:2lev 1 2048 10 1 memory_tuned_heapsort1387582298
	sim-bpred -bpred 2lev -bpred:2lev 1 4096 10 1 memory_tuned_heapsort1387582298
	sslittle-na-sstrix-gcc -Wall -O3 -funroll-loops -finline-functions  -DRANDOM_SIZE=524288 -DOFFSET=1 -DSORT=memory_tuned_heapsort sorts/memory_tuned_heapsort1548609840.c simpleMain.c -o memory_tuned_heapsort1387582298
	sim-cache -cache:dl1 dl1:256:32:1:l -cache:dl2 dl2:131072:32:1:l -cache:il1 il1:256:32:1:l -cache:il2 dl2 memory_tuned_heapsort1387582298
	sim-cache -cache:dl1 dl1:256:32:1:l -cache:dl2 dl2:65536:32:1:l -cache:il1 il1:256:32:1:l -cache:il2 dl2 memory_tuned_heapsort1387582298
	sim-cache -cache:dl1 dl1:1:32:256:l -cache:dl2 dl2:1:32:131072:l -cache:il1 il1:1:32:256:l -cache:il2 dl2 memory_tuned_heapsort1387582298
	sim-cache -cache:dl1 dl1:1:32:256:l -cache:dl2 dl2:1:32:65536:l -cache:il1 il1:1:32:256:l -cache:il2 dl2 memory_tuned_heapsort1387582298
	sim-bpred -bpred bimod -bpred:bimod 512 memory_tuned_heapsort1387582298
	sim-bpred -bpred bimod -bpred:bimod 1024 memory_tuned_heapsort1387582298
	sim-bpred -bpred bimod -bpred:bimod 2048 memory_tuned_heapsort1387582298
	sim-bpred -bpred 2lev -bpred:2lev 1 512 10 1 memory_tuned_heapsort1387582298
	sim-bpred -bpred 2lev -bpred:2lev 1 1024 10 1 memory_tuned_heapsort1387582298
	sim-bpred -bpred 2lev -bpred:2lev 1 2048 10 1 memory_tuned_heapsort1387582298
	sim-bpred -bpred 2lev -bpred:2lev 1 4096 10 1 memory_tuned_heapsort1387582298
	sslittle-na-sstrix-gcc -Wall -O3 -funroll-loops -finline-functions  -DRANDOM_SIZE=1048576 -DOFFSET=1 -DSORT=memory_tuned_heapsort sorts/memory_tuned_heapsort1548609840.c simpleMain.c -o memory_tuned_heapsort1387582298
	sim-cache -cache:dl1 dl1:256:32:1:l -cache:dl2 dl2:131072:32:1:l -cache:il1 il1:256:32:1:l -cache:il2 dl2 memory_tuned_heapsort1387582298
	sim-cache -cache:dl1 dl1:256:32:1:l -cache:dl2 dl2:65536:32:1:l -cache:il1 il1:256:32:1:l -cache:il2 dl2 memory_tuned_heapsort1387582298
	sim-cache -cache:dl1 dl1:1:32:256:l -cache:dl2 dl2:1:32:131072:l -cache:il1 il1:1:32:256:l -cache:il2 dl2 memory_tuned_heapsort1387582298
	sim-cache -cache:dl1 dl1:1:32:256:l -cache:dl2 dl2:1:32:65536:l -cache:il1 il1:1:32:256:l -cache:il2 dl2 memory_tuned_heapsort1387582298
	sim-bpred -bpred bimod -bpred:bimod 512 memory_tuned_heapsort1387582298
	sim-bpred -bpred bimod -bpred:bimod 1024 memory_tuned_heapsort1387582298
	sim-bpred -bpred bimod -bpred:bimod 2048 memory_tuned_heapsort1387582298
	sim-bpred -bpred 2lev -bpred:2lev 1 512 10 1 memory_tuned_heapsort1387582298
	sim-bpred -bpred 2lev -bpred:2lev 1 1024 10 1 memory_tuned_heapsort1387582298
	sim-bpred -bpred 2lev -bpred:2lev 1 2048 10 1 memory_tuned_heapsort1387582298
	sim-bpred -bpred 2lev -bpred:2lev 1 4096 10 1 memory_tuned_heapsort1387582298
	sslittle-na-sstrix-gcc -Wall -O3 -funroll-loops -finline-functions  -DRANDOM_SIZE=2097152 -DOFFSET=1 -DSORT=memory_tuned_heapsort sorts/memory_tuned_heapsort1548609840.c simpleMain.c -o memory_tuned_heapsort1387582298
	sim-cache -cache:dl1 dl1:256:32:1:l -cache:dl2 dl2:131072:32:1:l -cache:il1 il1:256:32:1:l -cache:il2 dl2 memory_tuned_heapsort1387582298
	sim-cache -cache:dl1 dl1:256:32:1:l -cache:dl2 dl2:65536:32:1:l -cache:il1 il1:256:32:1:l -cache:il2 dl2 memory_tuned_heapsort1387582298
	sim-cache -cache:dl1 dl1:1:32:256:l -cache:dl2 dl2:1:32:131072:l -cache:il1 il1:1:32:256:l -cache:il2 dl2 memory_tuned_heapsort1387582298
	sim-cache -cache:dl1 dl1:1:32:256:l -cache:dl2 dl2:1:32:65536:l -cache:il1 il1:1:32:256:l -cache:il2 dl2 memory_tuned_heapsort1387582298
	sim-bpred -bpred bimod -bpred:bimod 512 memory_tuned_heapsort1387582298
	sim-bpred -bpred bimod -bpred:bimod 1024 memory_tuned_heapsort1387582298
	sim-bpred -bpred bimod -bpred:bimod 2048 memory_tuned_heapsort1387582298
	sim-bpred -bpred 2lev -bpred:2lev 1 512 10 1 memory_tuned_heapsort1387582298
	sim-bpred -bpred 2lev -bpred:2lev 1 1024 10 1 memory_tuned_heapsort1387582298
	sim-bpred -bpred 2lev -bpred:2lev 1 2048 10 1 memory_tuned_heapsort1387582298
	sim-bpred -bpred 2lev -bpred:2lev 1 4096 10 1 memory_tuned_heapsort1387582298
	sslittle-na-sstrix-gcc -Wall -O3 -funroll-loops -finline-functions  -DRANDOM_SIZE=4194304 -DOFFSET=1 -DSORT=memory_tuned_heapsort sorts/memory_tuned_heapsort1548609840.c simpleMain.c -o memory_tuned_heapsort1387582298
	sim-cache -cache:dl1 dl1:256:32:1:l -cache:dl2 dl2:131072:32:1:l -cache:il1 il1:256:32:1:l -cache:il2 dl2 memory_tuned_heapsort1387582298
	sim-cache -cache:dl1 dl1:256:32:1:l -cache:dl2 dl2:65536:32:1:l -cache:il1 il1:256:32:1:l -cache:il2 dl2 memory_tuned_heapsort1387582298
	sim-cache -cache:dl1 dl1:1:32:256:l -cache:dl2 dl2:1:32:131072:l -cache:il1 il1:1:32:256:l -cache:il2 dl2 memory_tuned_heapsort1387582298
	sim-cache -cache:dl1 dl1:1:32:256:l -cache:dl2 dl2:1:32:65536:l -cache:il1 il1:1:32:256:l -cache:il2 dl2 memory_tuned_heapsort1387582298
	sim-bpred -bpred bimod -bpred:bimod 512 memory_tuned_heapsort1387582298
	sim-bpred -bpred bimod -bpred:bimod 1024 memory_tuned_heapsort1387582298
	sim-bpred -bpred bimod -bpred:bimod 2048 memory_tuned_heapsort1387582298
	sim-bpred -bpred 2lev -bpred:2lev 1 512 10 1 memory_tuned_heapsort1387582298
	sim-bpred -bpred 2lev -bpred:2lev 1 1024 10 1 memory_tuned_heapsort1387582298
	sim-bpred -bpred 2lev -bpred:2lev 1 2048 10 1 memory_tuned_heapsort1387582298
	sim-bpred -bpred 2lev -bpred:2lev 1 4096 10 1 memory_tuned_heapsort1387582298
