Mon Jul 25 10:56:20 2005
Run as: "./do_simple -c random.org7 -o 7 memory_tuned_radixsort"
-------------------------------------------------------------------------------------------------
sim-cache                                     4096 |         4096 |         4096 |         4096 |         8192 |         8192 |         8192 |         8192 |        16384 |        16384 |        16384 |        16384 |        32768 |        32768 |        32768 |        32768 |        65536 |        65536 |        65536 |        65536 |       131072 |       131072 |       131072 |       131072 |       262144 |       262144 |       262144 |       262144 |       524288 |       524288 |       524288 |       524288 |      1048576 |      1048576 |      1048576 |      1048576 |      2097152 |      2097152 |      2097152 |      2097152 |      4194304 |      4194304 |      4194304 |      4194304 |
-cache:dl1 dl1:256:32:1:l -cache:dl2 dl2:131072:32:1:l -cache:il1 il1:256:32:1:l -cache:il2 dl2
-cache:dl1 dl1:256:32:1:l -cache:dl2 dl2:65536:32:1:l -cache:il1 il1:256:32:1:l -cache:il2 dl2
-cache:dl1 dl1:1:32:256:l -cache:dl2 dl2:1:32:131072:l -cache:il1 il1:1:32:256:l -cache:il2 dl2
-cache:dl1 dl1:1:32:256:l -cache:dl2 dl2:1:32:65536:l -cache:il1 il1:1:32:256:l -cache:il2 dl2
-------------------------------------------------------------------------------------------------
sim_num_insn                                378641 |       378641 |       378641 |       378641 |       744351 |       744351 |       744351 |       744351 |      1475489 |      1475489 |      1475489 |      1475489 |      2937762 |      2937762 |      2937762 |      2937762 |      5862306 |      5862306 |      5862306 |      5862306 |     11711395 |     11711395 |     11711395 |     11711395 |     23409571 |     23409571 |     23409571 |     23409571 |     46805923 |     46805923 |     46805923 |     46805923 |     93611103 |     93611103 |     93611103 |     93611103 |    187205735 |    187205735 |    187205735 |    187205735 |    374394991 |    374394991 |    374394991 |    374394991 |
sim_num_refs                                138909 |       138909 |       138909 |       138909 |       270025 |       270025 |       270025 |       270025 |       532169 |       532169 |       532169 |       532169 |      1056457 |      1056457 |      1056457 |      1056457 |      2105033 |      2105033 |      2105033 |      2105033 |      4202185 |      4202185 |      4202185 |      4202185 |      8396489 |      8396489 |      8396489 |      8396489 |     16785097 |     16785097 |     16785097 |     16785097 |     33571575 |     33571575 |     33571575 |     33571575 |     67132151 |     67132151 |     67132151 |     67132151 |    134253303 |    134253303 |    134253303 |    134253303 |
sim_elapsed_time                                 1 |            1 |           10 |            5 |            1 |            1 |           15 |            8 |            1 |            1 |           26 |           13 |            1 |            1 |           47 |           23 |            2 |            2 |           87 |           41 |            4 |            3 |          159 |           71 |            8 |            7 |          270 |           95 |           15 |           16 |          363 |          103 |           31 |           31 |          378 |          120 |           61 |           60 |          402 |          152 |          124 |          122 |          481 |          219 |
sim_inst_rate                          378641.0000 |  378641.0000 |   37864.1000 |   75728.2000 |  744351.0000 |  744351.0000 |   49623.4000 |   93043.8750 | 1475489.0000 | 1475489.0000 |   56749.5769 |  113499.1538 | 2937762.0000 | 2937762.0000 |   62505.5745 |  127728.7826 | 2931153.0000 | 2931153.0000 |   67382.8276 |  142983.0732 | 2927848.7500 | 3903798.3333 |   73656.5723 |  164949.2254 | 2926196.3750 | 3344224.4286 |   86702.1148 |  246416.5368 | 3120394.8667 | 2925370.1875 |  128941.9366 |  454426.4369 | 3019713.0000 | 3019713.0000 |  247648.4206 |  780092.5250 | 3068946.4754 | 3120095.5833 |  465685.9080 | 1231616.6776 | 3019314.4435 | 3068811.4016 |  778367.9647 | 1709566.1689 |
il1.accesses                                378641 |       378641 |       378641 |       378641 |       744351 |       744351 |       744351 |       744351 |      1475489 |      1475489 |      1475489 |      1475489 |      2937762 |      2937762 |      2937762 |      2937762 |      5862306 |      5862306 |      5862306 |      5862306 |     11711395 |     11711395 |     11711395 |     11711395 |     23409571 |     23409571 |     23409571 |     23409571 |     46805923 |     46805923 |     46805923 |     46805923 |     93611103 |     93611103 |     93611103 |     93611103 |    187205735 |    187205735 |    187205735 |    187205735 |    374394991 |    374394991 |    374394991 |    374394991 |
il1.hits                                    378184 |       378184 |       378240 |       378240 |       743873 |       743873 |       743930 |       743930 |      1475027 |      1475027 |      1475104 |      1475104 |      2937283 |      2937283 |      2937339 |      2937339 |      5861827 |      5861827 |      5861883 |      5861883 |     11710916 |     11710916 |     11710972 |     11710972 |     23409092 |     23409092 |     23409148 |     23409148 |     46805444 |     46805444 |     46805500 |     46805500 |     93610578 |     93610578 |     93610645 |     93610645 |    187205210 |    187205210 |    187205277 |    187205277 |    374394466 |    374394466 |    374394533 |    374394533 |
il1.misses                                     457 |          457 |          401 |          401 |          478 |          478 |          421 |          421 |          462 |          462 |          385 |          385 |          479 |          479 |          423 |          423 |          479 |          479 |          423 |          423 |          479 |          479 |          423 |          423 |          479 |          479 |          423 |          423 |          479 |          479 |          423 |          423 |          525 |          525 |          458 |          458 |          525 |          525 |          458 |          458 |          525 |          525 |          458 |          458 |
il1.replacements                               253 |          253 |          145 |          145 |          270 |          270 |          165 |          165 |          257 |          257 |          129 |          129 |          272 |          272 |          167 |          167 |          272 |          272 |          167 |          167 |          272 |          272 |          167 |          167 |          272 |          272 |          167 |          167 |          272 |          272 |          167 |          167 |          308 |          308 |          202 |          202 |          308 |          308 |          202 |          202 |          308 |          308 |          202 |          202 |
il1.writebacks                                   0 |            0 |            0 |            0 |            0 |            0 |            0 |            0 |            0 |            0 |            0 |            0 |            0 |            0 |            0 |            0 |            0 |            0 |            0 |            0 |            0 |            0 |            0 |            0 |            0 |            0 |            0 |            0 |            0 |            0 |            0 |            0 |            0 |            0 |            0 |            0 |            0 |            0 |            0 |            0 |            0 |            0 |            0 |            0 |
il1.invalidations                                0 |            0 |            0 |            0 |            0 |            0 |            0 |            0 |            0 |            0 |            0 |            0 |            0 |            0 |            0 |            0 |            0 |            0 |            0 |            0 |            0 |            0 |            0 |            0 |            0 |            0 |            0 |            0 |            0 |            0 |            0 |            0 |            0 |            0 |            0 |            0 |            0 |            0 |            0 |            0 |            0 |            0 |            0 |            0 |
il1.miss_rate                               0.0012 |       0.0012 |       0.0011 |       0.0011 |       0.0006 |       0.0006 |       0.0006 |       0.0006 |       0.0003 |       0.0003 |       0.0003 |       0.0003 |       0.0002 |       0.0002 |       0.0001 |       0.0001 |       0.0001 |       0.0001 |       0.0001 |       0.0001 |       0.0000 |       0.0000 |       0.0000 |       0.0000 |       0.0000 |       0.0000 |       0.0000 |       0.0000 |       0.0000 |       0.0000 |       0.0000 |       0.0000 |       0.0000 |       0.0000 |       0.0000 |       0.0000 |       0.0000 |       0.0000 |       0.0000 |       0.0000 |       0.0000 |       0.0000 |       0.0000 |       0.0000 |
il1.repl_rate                               0.0007 |       0.0007 |       0.0004 |       0.0004 |       0.0004 |       0.0004 |       0.0002 |       0.0002 |       0.0002 |       0.0002 |       0.0001 |       0.0001 |       0.0001 |       0.0001 |       0.0001 |       0.0001 |       0.0000 |       0.0000 |       0.0000 |       0.0000 |       0.0000 |       0.0000 |       0.0000 |       0.0000 |       0.0000 |       0.0000 |       0.0000 |       0.0000 |       0.0000 |       0.0000 |       0.0000 |       0.0000 |       0.0000 |       0.0000 |       0.0000 |       0.0000 |       0.0000 |       0.0000 |       0.0000 |       0.0000 |       0.0000 |       0.0000 |       0.0000 |       0.0000 |
il1.wb_rate                                 0.0000 |       0.0000 |       0.0000 |       0.0000 |       0.0000 |       0.0000 |       0.0000 |       0.0000 |       0.0000 |       0.0000 |       0.0000 |       0.0000 |       0.0000 |       0.0000 |       0.0000 |       0.0000 |       0.0000 |       0.0000 |       0.0000 |       0.0000 |       0.0000 |       0.0000 |       0.0000 |       0.0000 |       0.0000 |       0.0000 |       0.0000 |       0.0000 |       0.0000 |       0.0000 |       0.0000 |       0.0000 |       0.0000 |       0.0000 |       0.0000 |       0.0000 |       0.0000 |       0.0000 |       0.0000 |       0.0000 |       0.0000 |       0.0000 |       0.0000 |       0.0000 |
il1.inv_rate                                0.0000 |       0.0000 |       0.0000 |       0.0000 |       0.0000 |       0.0000 |       0.0000 |       0.0000 |       0.0000 |       0.0000 |       0.0000 |       0.0000 |       0.0000 |       0.0000 |       0.0000 |       0.0000 |       0.0000 |       0.0000 |       0.0000 |       0.0000 |       0.0000 |       0.0000 |       0.0000 |       0.0000 |       0.0000 |       0.0000 |       0.0000 |       0.0000 |       0.0000 |       0.0000 |       0.0000 |       0.0000 |       0.0000 |       0.0000 |       0.0000 |       0.0000 |       0.0000 |       0.0000 |       0.0000 |       0.0000 |       0.0000 |       0.0000 |       0.0000 |       0.0000 |
dl1.accesses                                155375 |       155375 |       155375 |       155375 |       302875 |       302875 |       302875 |       302875 |       597787 |       597787 |       597787 |       597787 |      1187611 |      1187611 |      1187611 |      1187611 |      2367259 |      2367259 |      2367259 |      2367259 |      4726555 |      4726555 |      4726555 |      4726555 |      9445147 |      9445147 |      9445147 |      9445147 |     18882331 |     18882331 |     18882331 |     18882331 |     37765961 |     37765961 |     37765961 |     37765961 |     75520841 |     75520841 |     75520841 |     75520841 |    151030601 |    151030601 |    151030601 |    151030601 |
dl1.hits                                    138819 |       138819 |       143948 |       143948 |       269707 |       269707 |       280827 |       280827 |       531031 |       531031 |       554135 |       554135 |      1054497 |      1054497 |      1101080 |      1101080 |      2098316 |      2098316 |      2195114 |      2195114 |      4171204 |      4171204 |      4382675 |      4382675 |      8290862 |      8290862 |      8759212 |      8759212 |     16437784 |     16437784 |     17511807 |     17511807 |     33038086 |     33038086 |     35022334 |     35022334 |     66267735 |     66267735 |     70035378 |     70035378 |    133414109 |    133414109 |    140062802 |    140062802 |
dl1.misses                                   16556 |        16556 |        11427 |        11427 |        33168 |        33168 |        22048 |        22048 |        66756 |        66756 |        43652 |        43652 |       133114 |       133114 |        86531 |        86531 |       268943 |       268943 |       172145 |       172145 |       555351 |       555351 |       343880 |       343880 |      1154285 |      1154285 |       685935 |       685935 |      2444547 |      2444547 |      1370524 |      1370524 |      4727875 |      4727875 |      2743627 |      2743627 |      9253106 |      9253106 |      5485463 |      5485463 |     17616492 |     17616492 |     10967799 |     10967799 |
dl1.replacements                             16300 |        16300 |        11171 |        11171 |        32912 |        32912 |        21792 |        21792 |        66500 |        66500 |        43396 |        43396 |       132858 |       132858 |        86275 |        86275 |       268687 |       268687 |       171889 |       171889 |       555095 |       555095 |       343624 |       343624 |      1154029 |      1154029 |       685679 |       685679 |      2444291 |      2444291 |      1370268 |      1370268 |      4727619 |      4727619 |      2743371 |      2743371 |      9252850 |      9252850 |      5485207 |      5485207 |     17616236 |     17616236 |     10967543 |     10967543 |
dl1.writebacks                               13658 |        13658 |         8654 |         8654 |        27527 |        27527 |        16703 |        16703 |        55637 |        55637 |        33179 |        33179 |       110991 |       110991 |        65812 |        65812 |       224976 |       224976 |       130946 |       130946 |       467524 |       467524 |       261720 |       261720 |       978647 |       978647 |       521855 |       521855 |      2093539 |      2093539 |      1042604 |      1042604 |      4025816 |      4025816 |      2087641 |      2087641 |      7848877 |      7848877 |      4174115 |      4174115 |     14808385 |     14808385 |      8345731 |      8345731 |
dl1.invalidations                                0 |            0 |            0 |            0 |            0 |            0 |            0 |            0 |            0 |            0 |            0 |            0 |            0 |            0 |            0 |            0 |            0 |            0 |            0 |            0 |            0 |            0 |            0 |            0 |            0 |            0 |            0 |            0 |            0 |            0 |            0 |            0 |            0 |            0 |            0 |            0 |            0 |            0 |            0 |            0 |            0 |            0 |            0 |            0 |
dl1.miss_rate                               0.1066 |       0.1066 |       0.0735 |       0.0735 |       0.1095 |       0.1095 |       0.0728 |       0.0728 |       0.1117 |       0.1117 |       0.0730 |       0.0730 |       0.1121 |       0.1121 |       0.0729 |       0.0729 |       0.1136 |       0.1136 |       0.0727 |       0.0727 |       0.1175 |       0.1175 |       0.0728 |       0.0728 |       0.1222 |       0.1222 |       0.0726 |       0.0726 |       0.1295 |       0.1295 |       0.0726 |       0.0726 |       0.1252 |       0.1252 |       0.0726 |       0.0726 |       0.1225 |       0.1225 |       0.0726 |       0.0726 |       0.1166 |       0.1166 |       0.0726 |       0.0726 |
dl1.repl_rate                               0.1049 |       0.1049 |       0.0719 |       0.0719 |       0.1087 |       0.1087 |       0.0720 |       0.0720 |       0.1112 |       0.1112 |       0.0726 |       0.0726 |       0.1119 |       0.1119 |       0.0726 |       0.0726 |       0.1135 |       0.1135 |       0.0726 |       0.0726 |       0.1174 |       0.1174 |       0.0727 |       0.0727 |       0.1222 |       0.1222 |       0.0726 |       0.0726 |       0.1294 |       0.1294 |       0.0726 |       0.0726 |       0.1252 |       0.1252 |       0.0726 |       0.0726 |       0.1225 |       0.1225 |       0.0726 |       0.0726 |       0.1166 |       0.1166 |       0.0726 |       0.0726 |
dl1.wb_rate                                 0.0879 |       0.0879 |       0.0557 |       0.0557 |       0.0909 |       0.0909 |       0.0551 |       0.0551 |       0.0931 |       0.0931 |       0.0555 |       0.0555 |       0.0935 |       0.0935 |       0.0554 |       0.0554 |       0.0950 |       0.0950 |       0.0553 |       0.0553 |       0.0989 |       0.0989 |       0.0554 |       0.0554 |       0.1036 |       0.1036 |       0.0553 |       0.0553 |       0.1109 |       0.1109 |       0.0552 |       0.0552 |       0.1066 |       0.1066 |       0.0553 |       0.0553 |       0.1039 |       0.1039 |       0.0553 |       0.0553 |       0.0980 |       0.0980 |       0.0553 |       0.0553 |
dl1.inv_rate                                0.0000 |       0.0000 |       0.0000 |       0.0000 |       0.0000 |       0.0000 |       0.0000 |       0.0000 |       0.0000 |       0.0000 |       0.0000 |       0.0000 |       0.0000 |       0.0000 |       0.0000 |       0.0000 |       0.0000 |       0.0000 |       0.0000 |       0.0000 |       0.0000 |       0.0000 |       0.0000 |       0.0000 |       0.0000 |       0.0000 |       0.0000 |       0.0000 |       0.0000 |       0.0000 |       0.0000 |       0.0000 |       0.0000 |       0.0000 |       0.0000 |       0.0000 |       0.0000 |       0.0000 |       0.0000 |       0.0000 |       0.0000 |       0.0000 |       0.0000 |       0.0000 |
dl2.accesses                                 30671 |        30671 |        20482 |        20482 |        61173 |        61173 |        39172 |        39172 |       122855 |       122855 |        77216 |        77216 |       244584 |       244584 |       152766 |       152766 |       494398 |       494398 |       303514 |       303514 |      1023354 |      1023354 |       606023 |       606023 |      2133411 |      2133411 |      1208213 |      1208213 |      4538565 |      4538565 |      2413551 |      2413551 |      8754216 |      8754216 |      4831726 |      4831726 |     17102508 |     17102508 |      9660036 |      9660036 |     32425402 |     32425402 |     19313988 |     19313988 |
dl2.hits                                     28758 |        28758 |        18585 |        18585 |        58233 |        58233 |        36261 |        36261 |       117872 |       117872 |        72261 |        72261 |       235494 |       235494 |       143709 |       143709 |       477114 |       477114 |       286265 |       286265 |       989686 |       989686 |       572390 |       572390 |      2066975 |      2054955 |      1141812 |      1139392 |      4394525 |      4094510 |      2278678 |      1816049 |      7856775 |      7459532 |      3638111 |      3544886 |     14546076 |     14375233 |      7088292 |      7047491 |     27117151 |     26927701 |     14090938 |     14071739 |
dl2.misses                                    1913 |         1913 |         1897 |         1897 |         2940 |         2940 |         2911 |         2911 |         4983 |         4983 |         4955 |         4955 |         9090 |         9090 |         9057 |         9057 |        17284 |        17284 |        17249 |        17249 |        33668 |        33668 |        33633 |        33633 |        66436 |        78456 |        66401 |        68821 |       144040 |       444055 |       134873 |       597502 |       897441 |      1294684 |      1193615 |      1286840 |      2556432 |      2727275 |      2571744 |      2612545 |      5308251 |      5497701 |      5223050 |      5242249 |
dl2.replacements                               236 |          236 |            0 |            0 |          249 |          249 |            0 |            0 |          264 |          264 |            0 |            0 |          274 |          274 |            0 |            0 |          276 |          276 |            0 |            0 |          276 |          276 |            0 |            0 |          276 |        14032 |            0 |         3285 |        14080 |       378519 |         3801 |       531966 |       766369 |      1229148 |      1062543 |      1221304 |      2425360 |      2661739 |      2440672 |      2547009 |      5177179 |      5432165 |      5091978 |      5176713 |
dl2.writebacks                                 158 |          158 |            0 |            0 |          156 |          156 |            0 |            0 |          170 |          170 |            0 |            0 |          178 |          178 |            0 |            0 |          178 |          178 |            0 |            0 |          178 |          178 |            0 |            0 |          178 |        10569 |            0 |         3060 |        10588 |       300479 |         3576 |       296275 |       596027 |       660835 |       591900 |       624718 |      1315052 |      1423714 |      1248070 |      1280926 |      2691782 |      2873414 |      2560379 |      2593310 |
dl2.invalidations                                0 |            0 |            0 |            0 |            0 |            0 |            0 |            0 |            0 |            0 |            0 |            0 |            0 |            0 |            0 |            0 |            0 |            0 |            0 |            0 |            0 |            0 |            0 |            0 |            0 |            0 |            0 |            0 |            0 |            0 |            0 |            0 |            0 |            0 |            0 |            0 |            0 |            0 |            0 |            0 |            0 |            0 |            0 |            0 |
dl2.miss_rate                               0.0624 |       0.0624 |       0.0926 |       0.0926 |       0.0481 |       0.0481 |       0.0743 |       0.0743 |       0.0406 |       0.0406 |       0.0642 |       0.0642 |       0.0372 |       0.0372 |       0.0593 |       0.0593 |       0.0350 |       0.0350 |       0.0568 |       0.0568 |       0.0329 |       0.0329 |       0.0555 |       0.0555 |       0.0311 |       0.0368 |       0.0550 |       0.0570 |       0.0317 |       0.0978 |       0.0559 |       0.2476 |       0.1025 |       0.1479 |       0.2470 |       0.2663 |       0.1495 |       0.1595 |       0.2662 |       0.2704 |       0.1637 |       0.1695 |       0.2704 |       0.2714 |
dl2.repl_rate                               0.0077 |       0.0077 |       0.0000 |       0.0000 |       0.0041 |       0.0041 |       0.0000 |       0.0000 |       0.0021 |       0.0021 |       0.0000 |       0.0000 |       0.0011 |       0.0011 |       0.0000 |       0.0000 |       0.0006 |       0.0006 |       0.0000 |       0.0000 |       0.0003 |       0.0003 |       0.0000 |       0.0000 |       0.0001 |       0.0066 |       0.0000 |       0.0027 |       0.0031 |       0.0834 |       0.0016 |       0.2204 |       0.0875 |       0.1404 |       0.2199 |       0.2528 |       0.1418 |       0.1556 |       0.2527 |       0.2637 |       0.1597 |       0.1675 |       0.2636 |       0.2680 |
dl2.wb_rate                                 0.0052 |       0.0052 |       0.0000 |       0.0000 |       0.0026 |       0.0026 |       0.0000 |       0.0000 |       0.0014 |       0.0014 |       0.0000 |       0.0000 |       0.0007 |       0.0007 |       0.0000 |       0.0000 |       0.0004 |       0.0004 |       0.0000 |       0.0000 |       0.0002 |       0.0002 |       0.0000 |       0.0000 |       0.0001 |       0.0050 |       0.0000 |       0.0025 |       0.0023 |       0.0662 |       0.0015 |       0.1228 |       0.0681 |       0.0755 |       0.1225 |       0.1293 |       0.0769 |       0.0832 |       0.1292 |       0.1326 |       0.0830 |       0.0886 |       0.1326 |       0.1343 |
dl2.inv_rate                                0.0000 |       0.0000 |       0.0000 |       0.0000 |       0.0000 |       0.0000 |       0.0000 |       0.0000 |       0.0000 |       0.0000 |       0.0000 |       0.0000 |       0.0000 |       0.0000 |       0.0000 |       0.0000 |       0.0000 |       0.0000 |       0.0000 |       0.0000 |       0.0000 |       0.0000 |       0.0000 |       0.0000 |       0.0000 |       0.0000 |       0.0000 |       0.0000 |       0.0000 |       0.0000 |       0.0000 |       0.0000 |       0.0000 |       0.0000 |       0.0000 |       0.0000 |       0.0000 |       0.0000 |       0.0000 |       0.0000 |       0.0000 |       0.0000 |       0.0000 |       0.0000 |
itlb.accesses                               378641 |       378641 |       378641 |       378641 |       744351 |       744351 |       744351 |       744351 |      1475489 |      1475489 |      1475489 |      1475489 |      2937762 |      2937762 |      2937762 |      2937762 |      5862306 |      5862306 |      5862306 |      5862306 |     11711395 |     11711395 |     11711395 |     11711395 |     23409571 |     23409571 |     23409571 |     23409571 |     46805923 |     46805923 |     46805923 |     46805923 |     93611103 |     93611103 |     93611103 |     93611103 |    187205735 |    187205735 |    187205735 |    187205735 |    374394991 |    374394991 |    374394991 |    374394991 |
itlb.hits                                   378631 |       378631 |       378631 |       378631 |       744341 |       744341 |       744341 |       744341 |      1475479 |      1475479 |      1475479 |      1475479 |      2937752 |      2937752 |      2937752 |      2937752 |      5862296 |      5862296 |      5862296 |      5862296 |     11711385 |     11711385 |     11711385 |     11711385 |     23409561 |     23409561 |     23409561 |     23409561 |     46805913 |     46805913 |     46805913 |     46805913 |     93611093 |     93611093 |     93611093 |     93611093 |    187205725 |    187205725 |    187205725 |    187205725 |    374394981 |    374394981 |    374394981 |    374394981 |
itlb.misses                                     10 |           10 |           10 |           10 |           10 |           10 |           10 |           10 |           10 |           10 |           10 |           10 |           10 |           10 |           10 |           10 |           10 |           10 |           10 |           10 |           10 |           10 |           10 |           10 |           10 |           10 |           10 |           10 |           10 |           10 |           10 |           10 |           10 |           10 |           10 |           10 |           10 |           10 |           10 |           10 |           10 |           10 |           10 |           10 |
itlb.replacements                                0 |            0 |            0 |            0 |            0 |            0 |            0 |            0 |            0 |            0 |            0 |            0 |            0 |            0 |            0 |            0 |            0 |            0 |            0 |            0 |            0 |            0 |            0 |            0 |            0 |            0 |            0 |            0 |            0 |            0 |            0 |            0 |            0 |            0 |            0 |            0 |            0 |            0 |            0 |            0 |            0 |            0 |            0 |            0 |
itlb.writebacks                                  0 |            0 |            0 |            0 |            0 |            0 |            0 |            0 |            0 |            0 |            0 |            0 |            0 |            0 |            0 |            0 |            0 |            0 |            0 |            0 |            0 |            0 |            0 |            0 |            0 |            0 |            0 |            0 |            0 |            0 |            0 |            0 |            0 |            0 |            0 |            0 |            0 |            0 |            0 |            0 |            0 |            0 |            0 |            0 |
itlb.invalidations                               0 |            0 |            0 |            0 |            0 |            0 |            0 |            0 |            0 |            0 |            0 |            0 |            0 |            0 |            0 |            0 |            0 |            0 |            0 |            0 |            0 |            0 |            0 |            0 |            0 |            0 |            0 |            0 |            0 |            0 |            0 |            0 |            0 |            0 |            0 |            0 |            0 |            0 |            0 |            0 |            0 |            0 |            0 |            0 |
itlb.miss_rate                              0.0000 |       0.0000 |       0.0000 |       0.0000 |       0.0000 |       0.0000 |       0.0000 |       0.0000 |       0.0000 |       0.0000 |       0.0000 |       0.0000 |       0.0000 |       0.0000 |       0.0000 |       0.0000 |       0.0000 |       0.0000 |       0.0000 |       0.0000 |       0.0000 |       0.0000 |       0.0000 |       0.0000 |       0.0000 |       0.0000 |       0.0000 |       0.0000 |       0.0000 |       0.0000 |       0.0000 |       0.0000 |       0.0000 |       0.0000 |       0.0000 |       0.0000 |       0.0000 |       0.0000 |       0.0000 |       0.0000 |       0.0000 |       0.0000 |       0.0000 |       0.0000 |
itlb.repl_rate                              0.0000 |       0.0000 |       0.0000 |       0.0000 |       0.0000 |       0.0000 |       0.0000 |       0.0000 |       0.0000 |       0.0000 |       0.0000 |       0.0000 |       0.0000 |       0.0000 |       0.0000 |       0.0000 |       0.0000 |       0.0000 |       0.0000 |       0.0000 |       0.0000 |       0.0000 |       0.0000 |       0.0000 |       0.0000 |       0.0000 |       0.0000 |       0.0000 |       0.0000 |       0.0000 |       0.0000 |       0.0000 |       0.0000 |       0.0000 |       0.0000 |       0.0000 |       0.0000 |       0.0000 |       0.0000 |       0.0000 |       0.0000 |       0.0000 |       0.0000 |       0.0000 |
itlb.wb_rate                                0.0000 |       0.0000 |       0.0000 |       0.0000 |       0.0000 |       0.0000 |       0.0000 |       0.0000 |       0.0000 |       0.0000 |       0.0000 |       0.0000 |       0.0000 |       0.0000 |       0.0000 |       0.0000 |       0.0000 |       0.0000 |       0.0000 |       0.0000 |       0.0000 |       0.0000 |       0.0000 |       0.0000 |       0.0000 |       0.0000 |       0.0000 |       0.0000 |       0.0000 |       0.0000 |       0.0000 |       0.0000 |       0.0000 |       0.0000 |       0.0000 |       0.0000 |       0.0000 |       0.0000 |       0.0000 |       0.0000 |       0.0000 |       0.0000 |       0.0000 |       0.0000 |
itlb.inv_rate                               0.0000 |       0.0000 |       0.0000 |       0.0000 |       0.0000 |       0.0000 |       0.0000 |       0.0000 |       0.0000 |       0.0000 |       0.0000 |       0.0000 |       0.0000 |       0.0000 |       0.0000 |       0.0000 |       0.0000 |       0.0000 |       0.0000 |       0.0000 |       0.0000 |       0.0000 |       0.0000 |       0.0000 |       0.0000 |       0.0000 |       0.0000 |       0.0000 |       0.0000 |       0.0000 |       0.0000 |       0.0000 |       0.0000 |       0.0000 |       0.0000 |       0.0000 |       0.0000 |       0.0000 |       0.0000 |       0.0000 |       0.0000 |       0.0000 |       0.0000 |       0.0000 |
dtlb.accesses                               155375 |       155375 |       155375 |       155375 |       302875 |       302875 |       302875 |       302875 |       597787 |       597787 |       597787 |       597787 |      1187611 |      1187611 |      1187611 |      1187611 |      2367259 |      2367259 |      2367259 |      2367259 |      4726555 |      4726555 |      4726555 |      4726555 |      9445147 |      9445147 |      9445147 |      9445147 |     18882331 |     18882331 |     18882331 |     18882331 |     37765961 |     37765961 |     37765961 |     37765961 |     75520841 |     75520841 |     75520841 |     75520841 |    151030601 |    151030601 |    151030601 |    151030601 |
dtlb.hits                                   155360 |       155360 |       155360 |       155360 |       302852 |       302852 |       302852 |       302852 |       597748 |       597748 |       597748 |       597748 |      1187540 |      1187540 |      1187540 |      1187540 |      2367111 |      2367111 |      2367111 |      2367111 |      4716307 |      4716307 |      4716307 |      4716307 |      8918815 |      8918815 |      8918815 |      8918815 |     17523693 |     17523693 |     17523693 |     17523693 |     34507316 |     34507316 |     34507316 |     34507316 |     68233119 |     68233119 |     68233119 |     68233119 |    135783344 |    135783344 |    135783344 |    135783344 |
dtlb.misses                                     15 |           15 |           15 |           15 |           23 |           23 |           23 |           23 |           39 |           39 |           39 |           39 |           71 |           71 |           71 |           71 |          148 |          148 |          148 |          148 |        10248 |        10248 |        10248 |        10248 |       526332 |       526332 |       526332 |       526332 |      1358638 |      1358638 |      1358638 |      1358638 |      3258645 |      3258645 |      3258645 |      3258645 |      7287722 |      7287722 |      7287722 |      7287722 |     15247257 |     15247257 |     15247257 |     15247257 |
dtlb.replacements                                0 |            0 |            0 |            0 |            0 |            0 |            0 |            0 |            0 |            0 |            0 |            0 |            0 |            0 |            0 |            0 |           20 |           20 |           20 |           20 |        10120 |        10120 |        10120 |        10120 |       526204 |       526204 |       526204 |       526204 |      1358510 |      1358510 |      1358510 |      1358510 |      3258517 |      3258517 |      3258517 |      3258517 |      7287594 |      7287594 |      7287594 |      7287594 |     15247129 |     15247129 |     15247129 |     15247129 |
dtlb.writebacks                                  0 |            0 |            0 |            0 |            0 |            0 |            0 |            0 |            0 |            0 |            0 |            0 |            0 |            0 |            0 |            0 |           15 |           15 |           15 |           15 |         9593 |         9593 |         9593 |         9593 |       524924 |       524924 |       524924 |       524924 |      1355966 |      1355966 |      1355966 |      1355966 |      3253471 |      3253471 |      3253471 |      3253471 |      7277455 |      7277455 |      7277455 |      7277455 |     15226750 |     15226750 |     15226750 |     15226750 |
dtlb.invalidations                               0 |            0 |            0 |            0 |            0 |            0 |            0 |            0 |            0 |            0 |            0 |            0 |            0 |            0 |            0 |            0 |            0 |            0 |            0 |            0 |            0 |            0 |            0 |            0 |            0 |            0 |            0 |            0 |            0 |            0 |            0 |            0 |            0 |            0 |            0 |            0 |            0 |            0 |            0 |            0 |            0 |            0 |            0 |            0 |
dtlb.miss_rate                              0.0001 |       0.0001 |       0.0001 |       0.0001 |       0.0001 |       0.0001 |       0.0001 |       0.0001 |       0.0001 |       0.0001 |       0.0001 |       0.0001 |       0.0001 |       0.0001 |       0.0001 |       0.0001 |       0.0001 |       0.0001 |       0.0001 |       0.0001 |       0.0022 |       0.0022 |       0.0022 |       0.0022 |       0.0557 |       0.0557 |       0.0557 |       0.0557 |       0.0720 |       0.0720 |       0.0720 |       0.0720 |       0.0863 |       0.0863 |       0.0863 |       0.0863 |       0.0965 |       0.0965 |       0.0965 |       0.0965 |       0.1010 |       0.1010 |       0.1010 |       0.1010 |
dtlb.repl_rate                              0.0000 |       0.0000 |       0.0000 |       0.0000 |       0.0000 |       0.0000 |       0.0000 |       0.0000 |       0.0000 |       0.0000 |       0.0000 |       0.0000 |       0.0000 |       0.0000 |       0.0000 |       0.0000 |       0.0000 |       0.0000 |       0.0000 |       0.0000 |       0.0021 |       0.0021 |       0.0021 |       0.0021 |       0.0557 |       0.0557 |       0.0557 |       0.0557 |       0.0719 |       0.0719 |       0.0719 |       0.0719 |       0.0863 |       0.0863 |       0.0863 |       0.0863 |       0.0965 |       0.0965 |       0.0965 |       0.0965 |       0.1010 |       0.1010 |       0.1010 |       0.1010 |
dtlb.wb_rate                                0.0000 |       0.0000 |       0.0000 |       0.0000 |       0.0000 |       0.0000 |       0.0000 |       0.0000 |       0.0000 |       0.0000 |       0.0000 |       0.0000 |       0.0000 |       0.0000 |       0.0000 |       0.0000 |       0.0000 |       0.0000 |       0.0000 |       0.0000 |       0.0020 |       0.0020 |       0.0020 |       0.0020 |       0.0556 |       0.0556 |       0.0556 |       0.0556 |       0.0718 |       0.0718 |       0.0718 |       0.0718 |       0.0861 |       0.0861 |       0.0861 |       0.0861 |       0.0964 |       0.0964 |       0.0964 |       0.0964 |       0.1008 |       0.1008 |       0.1008 |       0.1008 |
dtlb.inv_rate                               0.0000 |       0.0000 |       0.0000 |       0.0000 |       0.0000 |       0.0000 |       0.0000 |       0.0000 |       0.0000 |       0.0000 |       0.0000 |       0.0000 |       0.0000 |       0.0000 |       0.0000 |       0.0000 |       0.0000 |       0.0000 |       0.0000 |       0.0000 |       0.0000 |       0.0000 |       0.0000 |       0.0000 |       0.0000 |       0.0000 |       0.0000 |       0.0000 |       0.0000 |       0.0000 |       0.0000 |       0.0000 |       0.0000 |       0.0000 |       0.0000 |       0.0000 |       0.0000 |       0.0000 |       0.0000 |       0.0000 |       0.0000 |       0.0000 |       0.0000 |       0.0000 |
ld_text_base                            0x00400000 |   0x00400000 |   0x00400000 |   0x00400000 |   0x00400000 |   0x00400000 |   0x00400000 |   0x00400000 |   0x00400000 |   0x00400000 |   0x00400000 |   0x00400000 |   0x00400000 |   0x00400000 |   0x00400000 |   0x00400000 |   0x00400000 |   0x00400000 |   0x00400000 |   0x00400000 |   0x00400000 |   0x00400000 |   0x00400000 |   0x00400000 |   0x00400000 |   0x00400000 |   0x00400000 |   0x00400000 |   0x00400000 |   0x00400000 |   0x00400000 |   0x00400000 |   0x00400000 |   0x00400000 |   0x00400000 |   0x00400000 |   0x00400000 |   0x00400000 |   0x00400000 |   0x00400000 |   0x00400000 |   0x00400000 |   0x00400000 |   0x00400000 |
ld_text_size                                 73856 |        73856 |        73856 |        73856 |        73888 |        73888 |        73888 |        73888 |        73904 |        73904 |        73904 |        73904 |        73920 |        73920 |        73920 |        73920 |        73920 |        73920 |        73920 |        73920 |        73920 |        73920 |        73920 |        73920 |        73920 |        73920 |        73920 |        73920 |        73920 |        73920 |        73920 |        73920 |        73920 |        73920 |        73920 |        73920 |        73920 |        73920 |        73920 |        73920 |        73920 |        73920 |        73920 |        73920 |
ld_data_base                            0x10000000 |   0x10000000 |   0x10000000 |   0x10000000 |   0x10000000 |   0x10000000 |   0x10000000 |   0x10000000 |   0x10000000 |   0x10000000 |   0x10000000 |   0x10000000 |   0x10000000 |   0x10000000 |   0x10000000 |   0x10000000 |   0x10000000 |   0x10000000 |   0x10000000 |   0x10000000 |   0x10000000 |   0x10000000 |   0x10000000 |   0x10000000 |   0x10000000 |   0x10000000 |   0x10000000 |   0x10000000 |   0x10000000 |   0x10000000 |   0x10000000 |   0x10000000 |   0x10000000 |   0x10000000 |   0x10000000 |   0x10000000 |   0x10000000 |   0x10000000 |   0x10000000 |   0x10000000 |   0x10000000 |   0x10000000 |   0x10000000 |   0x10000000 |
ld_data_size                                  8192 |         8192 |         8192 |         8192 |         8192 |         8192 |         8192 |         8192 |         8192 |         8192 |         8192 |         8192 |         8192 |         8192 |         8192 |         8192 |         8192 |         8192 |         8192 |         8192 |         8192 |         8192 |         8192 |         8192 |         8192 |         8192 |         8192 |         8192 |         8192 |         8192 |         8192 |         8192 |         8192 |         8192 |         8192 |         8192 |         8192 |         8192 |         8192 |         8192 |         8192 |         8192 |         8192 |         8192 |
ld_stack_base                           0x7fffc000 |   0x7fffc000 |   0x7fffc000 |   0x7fffc000 |   0x7fffc000 |   0x7fffc000 |   0x7fffc000 |   0x7fffc000 |   0x7fffc000 |   0x7fffc000 |   0x7fffc000 |   0x7fffc000 |   0x7fffc000 |   0x7fffc000 |   0x7fffc000 |   0x7fffc000 |   0x7fffc000 |   0x7fffc000 |   0x7fffc000 |   0x7fffc000 |   0x7fffc000 |   0x7fffc000 |   0x7fffc000 |   0x7fffc000 |   0x7fffc000 |   0x7fffc000 |   0x7fffc000 |   0x7fffc000 |   0x7fffc000 |   0x7fffc000 |   0x7fffc000 |   0x7fffc000 |   0x7fffc000 |   0x7fffc000 |   0x7fffc000 |   0x7fffc000 |   0x7fffc000 |   0x7fffc000 |   0x7fffc000 |   0x7fffc000 |   0x7fffc000 |   0x7fffc000 |   0x7fffc000 |   0x7fffc000 |
ld_stack_size                                16384 |        16384 |        16384 |        16384 |        16384 |        16384 |        16384 |        16384 |        16384 |        16384 |        16384 |        16384 |        16384 |        16384 |        16384 |        16384 |        16384 |        16384 |        16384 |        16384 |        16384 |        16384 |        16384 |        16384 |        16384 |        16384 |        16384 |        16384 |        16384 |        16384 |        16384 |        16384 |        16384 |        16384 |        16384 |        16384 |        16384 |        16384 |        16384 |        16384 |        16384 |        16384 |        16384 |        16384 |
ld_prog_entry                           0x00400140 |   0x00400140 |   0x00400140 |   0x00400140 |   0x00400140 |   0x00400140 |   0x00400140 |   0x00400140 |   0x00400140 |   0x00400140 |   0x00400140 |   0x00400140 |   0x00400140 |   0x00400140 |   0x00400140 |   0x00400140 |   0x00400140 |   0x00400140 |   0x00400140 |   0x00400140 |   0x00400140 |   0x00400140 |   0x00400140 |   0x00400140 |   0x00400140 |   0x00400140 |   0x00400140 |   0x00400140 |   0x00400140 |   0x00400140 |   0x00400140 |   0x00400140 |   0x00400140 |   0x00400140 |   0x00400140 |   0x00400140 |   0x00400140 |   0x00400140 |   0x00400140 |   0x00400140 |   0x00400140 |   0x00400140 |   0x00400140 |   0x00400140 |
ld_environ_base                         0x7fff8000 |   0x7fff8000 |   0x7fff8000 |   0x7fff8000 |   0x7fff8000 |   0x7fff8000 |   0x7fff8000 |   0x7fff8000 |   0x7fff8000 |   0x7fff8000 |   0x7fff8000 |   0x7fff8000 |   0x7fff8000 |   0x7fff8000 |   0x7fff8000 |   0x7fff8000 |   0x7fff8000 |   0x7fff8000 |   0x7fff8000 |   0x7fff8000 |   0x7fff8000 |   0x7fff8000 |   0x7fff8000 |   0x7fff8000 |   0x7fff8000 |   0x7fff8000 |   0x7fff8000 |   0x7fff8000 |   0x7fff8000 |   0x7fff8000 |   0x7fff8000 |   0x7fff8000 |   0x7fff8000 |   0x7fff8000 |   0x7fff8000 |   0x7fff8000 |   0x7fff8000 |   0x7fff8000 |   0x7fff8000 |   0x7fff8000 |   0x7fff8000 |   0x7fff8000 |   0x7fff8000 |   0x7fff8000 |
ld_target_big_endian                             0 |            0 |            0 |            0 |            0 |            0 |            0 |            0 |            0 |            0 |            0 |            0 |            0 |            0 |            0 |            0 |            0 |            0 |            0 |            0 |            0 |            0 |            0 |            0 |            0 |            0 |            0 |            0 |            0 |            0 |            0 |            0 |            0 |            0 |            0 |            0 |            0 |            0 |            0 |            0 |            0 |            0 |            0 |            0 |
mem.page_count                                  34 |           34 |           34 |           34 |           42 |           42 |           42 |           42 |           58 |           58 |           58 |           58 |           90 |           90 |           90 |           90 |          154 |          154 |          154 |          154 |          282 |          282 |          282 |          282 |          538 |          538 |          538 |          538 |         1050 |         1050 |         1050 |         1050 |         2080 |         2080 |         2080 |         2080 |         4134 |         4134 |         4134 |         4134 |         8242 |         8242 |         8242 |         8242 |
mem.page_mem                                  136k |         136k |         136k |         136k |         168k |         168k |         168k |         168k |         232k |         232k |         232k |         232k |         360k |         360k |         360k |         360k |         616k |         616k |         616k |         616k |        1128k |        1128k |        1128k |        1128k |        2152k |        2152k |        2152k |        2152k |        4200k |        4200k |        4200k |        4200k |        8320k |        8320k |        8320k |        8320k |       16536k |       16536k |       16536k |       16536k |       32968k |       32968k |       32968k |       32968k |
mem.ptab_misses                                 34 |           34 |           34 |           34 |           42 |           42 |           42 |           42 |           58 |           58 |           58 |           58 |           90 |           90 |           90 |           90 |          154 |          154 |          154 |          154 |          282 |          282 |          282 |          282 |          538 |          538 |          538 |          538 |         1050 |         1050 |         1050 |         1050 |        18467 |        18467 |        18467 |        18467 |        18477 |        18477 |        18477 |        18477 |        22585 |        22585 |        22585 |        22585 |
mem.ptab_accesses                          2283028 |      2283028 |      2283028 |      2283028 |      4041060 |      4041060 |      4041060 |      4041060 |      7555532 |      7555532 |      7555532 |      7555532 |     14584368 |     14584368 |     14584368 |     14584368 |     28641840 |     28641840 |     28641840 |     28641840 |     56756788 |     56756788 |     56756788 |     56756788 |    112986676 |    112986676 |    112986676 |    112986676 |    225446452 |    225446452 |    225446452 |    225446452 |    450434432 |    450434432 |    450434432 |    450434432 |    900322720 |    900322720 |    900322720 |    900322720 |   1800099264 |   1800099264 |   1800099264 |   1800099264 |
mem.ptab_miss_rate                          0.0000 |       0.0000 |       0.0000 |       0.0000 |       0.0000 |       0.0000 |       0.0000 |       0.0000 |       0.0000 |       0.0000 |       0.0000 |       0.0000 |       0.0000 |       0.0000 |       0.0000 |       0.0000 |       0.0000 |       0.0000 |       0.0000 |       0.0000 |       0.0000 |       0.0000 |       0.0000 |       0.0000 |       0.0000 |       0.0000 |       0.0000 |       0.0000 |       0.0000 |       0.0000 |       0.0000 |       0.0000 |       0.0000 |       0.0000 |       0.0000 |       0.0000 |       0.0000 |       0.0000 |       0.0000 |       0.0000 |       0.0000 |       0.0000 |       0.0000 |       0.0000 |
-------------------------------------------------------------------------------------------------
sim-bpred                                     4096 |         4096 |         4096 |         4096 |         4096 |         4096 |         4096 |         8192 |         8192 |         8192 |         8192 |         8192 |         8192 |         8192 |        16384 |        16384 |        16384 |        16384 |        16384 |        16384 |        16384 |        32768 |        32768 |        32768 |        32768 |        32768 |        32768 |        32768 |        65536 |        65536 |        65536 |        65536 |        65536 |        65536 |        65536 |       131072 |       131072 |       131072 |       131072 |       131072 |       131072 |       131072 |       262144 |       262144 |       262144 |       262144 |       262144 |       262144 |       262144 |       524288 |       524288 |       524288 |       524288 |       524288 |       524288 |       524288 |      1048576 |      1048576 |      1048576 |      1048576 |      1048576 |      1048576 |      1048576 |      2097152 |      2097152 |      2097152 |      2097152 |      2097152 |      2097152 |      2097152 |      4194304 |      4194304 |      4194304 |      4194304 |      4194304 |      4194304 |      4194304 |
-bpred bimod -bpred:bimod 512
-bpred bimod -bpred:bimod 1024
-bpred bimod -bpred:bimod 2048
-bpred 2lev -bpred:2lev 1 512 10 1
-bpred 2lev -bpred:2lev 1 1024 10 1
-bpred 2lev -bpred:2lev 1 2048 10 1
-bpred 2lev -bpred:2lev 1 4096 10 1
-------------------------------------------------------------------------------------------------
sim_num_insn                                378641 |       378641 |       378641 |       378641 |       378641 |       378641 |       378641 |       744351 |       744351 |       744351 |       744351 |       744351 |       744351 |       744351 |      1475489 |      1475489 |      1475489 |      1475489 |      1475489 |      1475489 |      1475489 |      2937762 |      2937762 |      2937762 |      2937762 |      2937762 |      2937762 |      2937762 |      5862306 |      5862306 |      5862306 |      5862306 |      5862306 |      5862306 |      5862306 |     11711395 |     11711395 |     11711395 |     11711395 |     11711395 |     11711395 |     11711395 |     23409571 |     23409571 |     23409571 |     23409571 |     23409571 |     23409571 |     23409571 |     46805923 |     46805923 |     46805923 |     46805923 |     46805923 |     46805923 |     46805923 |     93611103 |     93611103 |     93611103 |     93611103 |     93611103 |     93611103 |     93611103 |    187205735 |    187205735 |    187205735 |    187205735 |    187205735 |    187205735 |    187205735 |    374394991 |    374394991 |    374394991 |    374394991 |    374394991 |    374394991 |    374394991 |
sim_num_refs                                138909 |       138909 |       138909 |       138909 |       138909 |       138909 |       138909 |       270025 |       270025 |       270025 |       270025 |       270025 |       270025 |       270025 |       532169 |       532169 |       532169 |       532169 |       532169 |       532169 |       532169 |      1056457 |      1056457 |      1056457 |      1056457 |      1056457 |      1056457 |      1056457 |      2105033 |      2105033 |      2105033 |      2105033 |      2105033 |      2105033 |      2105033 |      4202185 |      4202185 |      4202185 |      4202185 |      4202185 |      4202185 |      4202185 |      8396489 |      8396489 |      8396489 |      8396489 |      8396489 |      8396489 |      8396489 |     16785097 |     16785097 |     16785097 |     16785097 |     16785097 |     16785097 |     16785097 |     33571575 |     33571575 |     33571575 |     33571575 |     33571575 |     33571575 |     33571575 |     67132151 |     67132151 |     67132151 |     67132151 |     67132151 |     67132151 |     67132151 |    134253303 |    134253303 |    134253303 |    134253303 |    134253303 |    134253303 |    134253303 |
sim_elapsed_time                                 1 |            1 |            1 |            1 |            1 |            1 |            1 |            1 |            1 |            1 |            1 |            1 |            1 |            1 |            1 |            1 |            1 |            1 |            1 |            1 |            1 |            1 |            1 |            1 |            1 |            1 |            1 |            1 |            1 |            1 |            1 |            1 |            1 |            1 |            1 |            1 |            1 |            1 |            1 |            1 |            2 |            1 |            3 |            2 |            2 |            3 |            2 |            2 |            3 |            4 |            5 |            5 |            4 |            5 |            5 |            4 |            9 |            9 |            9 |           10 |            9 |            9 |            9 |           18 |           19 |           18 |           18 |           19 |           18 |           19 |           36 |           36 |           37 |           37 |           36 |           36 |           37 |
sim_inst_rate                          378641.0000 |  378641.0000 |  378641.0000 |  378641.0000 |  378641.0000 |  378641.0000 |  378641.0000 |  744351.0000 |  744351.0000 |  744351.0000 |  744351.0000 |  744351.0000 |  744351.0000 |  744351.0000 | 1475489.0000 | 1475489.0000 | 1475489.0000 | 1475489.0000 | 1475489.0000 | 1475489.0000 | 1475489.0000 | 2937762.0000 | 2937762.0000 | 2937762.0000 | 2937762.0000 | 2937762.0000 | 2937762.0000 | 2937762.0000 | 5862306.0000 | 5862306.0000 | 5862306.0000 | 5862306.0000 | 5862306.0000 | 5862306.0000 | 5862306.0000 |11711395.0000 |11711395.0000 |11711395.0000 |11711395.0000 |11711395.0000 | 5855697.5000 |11711395.0000 | 7803190.3333 |11704785.5000 |11704785.5000 | 7803190.3333 |11704785.5000 |11704785.5000 | 7803190.3333 |11701480.7500 | 9361184.6000 | 9361184.6000 |11701480.7500 | 9361184.6000 | 9361184.6000 |11701480.7500 |10401233.6667 |10401233.6667 |10401233.6667 | 9361110.3000 |10401233.6667 |10401233.6667 |10401233.6667 |10400318.6111 | 9852933.4211 |10400318.6111 |10400318.6111 | 9852933.4211 |10400318.6111 | 9852933.4211 |10399860.8611 |10399860.8611 |10118783.5405 |10118783.5405 |10399860.8611 |10399860.8611 |10118783.5405 |
sim_num_branches                              9239 |         9239 |         9239 |         9239 |         9239 |         9239 |         9239 |        17471 |        17471 |        17471 |        17471 |        17471 |        17471 |        17471 |        33855 |        33855 |        33855 |        33855 |        33855 |        33855 |        33855 |        66623 |        66623 |        66623 |        66623 |        66623 |        66623 |        66623 |       132159 |       132159 |       132159 |       132159 |       132159 |       132159 |       132159 |       263231 |       263231 |       263231 |       263231 |       263231 |       263231 |       263231 |       525375 |       525375 |       525375 |       525375 |       525375 |       525375 |       525375 |      1049663 |      1049663 |      1049663 |      1049663 |      1049663 |      1049663 |      1049663 |      2099032 |      2099032 |      2099032 |      2099032 |      2099032 |      2099032 |      2099032 |      4196955 |      4196955 |      4196955 |      4196955 |      4196955 |      4196955 |      4196955 |      8392798 |      8392798 |      8392798 |      8392798 |      8392798 |      8392798 |      8392798 |
sim_IPB                                    40.9829 |      40.9829 |      40.9829 |      40.9829 |      40.9829 |      40.9829 |      40.9829 |      42.6049 |      42.6049 |      42.6049 |      42.6049 |      42.6049 |      42.6049 |      42.6049 |      43.5826 |      43.5826 |      43.5826 |      43.5826 |      43.5826 |      43.5826 |      43.5826 |      44.0953 |      44.0953 |      44.0953 |      44.0953 |      44.0953 |      44.0953 |      44.0953 |      44.3580 |      44.3580 |      44.3580 |      44.3580 |      44.3580 |      44.3580 |      44.3580 |      44.4909 |      44.4909 |      44.4909 |      44.4909 |      44.4909 |      44.4909 |      44.4909 |      44.5578 |      44.5578 |      44.5578 |      44.5578 |      44.5578 |      44.5578 |      44.5578 |      44.5914 |      44.5914 |      44.5914 |      44.5914 |      44.5914 |      44.5914 |      44.5914 |      44.5973 |      44.5973 |      44.5973 |      44.5973 |      44.5973 |      44.5973 |      44.5973 |      44.6051 |      44.6051 |      44.6051 |      44.6051 |      44.6051 |      44.6051 |      44.6051 |      44.6091 |      44.6091 |      44.6091 |      44.6091 |      44.6091 |      44.6091 |      44.6091 |
bpred_bimod.lookups                           9239 |         9239 |         9239 |xxxxxxxxxxxxx |xxxxxxxxxxxxx |xxxxxxxxxxxxx |xxxxxxxxxxxxx |        17471 |        17471 |        17471 |xxxxxxxxxxxxx |xxxxxxxxxxxxx |xxxxxxxxxxxxx |xxxxxxxxxxxxx |        33855 |        33855 |        33855 |xxxxxxxxxxxxx |xxxxxxxxxxxxx |xxxxxxxxxxxxx |xxxxxxxxxxxxx |        66623 |        66623 |        66623 |xxxxxxxxxxxxx |xxxxxxxxxxxxx |xxxxxxxxxxxxx |xxxxxxxxxxxxx |       132159 |       132159 |       132159 |xxxxxxxxxxxxx |xxxxxxxxxxxxx |xxxxxxxxxxxxx |xxxxxxxxxxxxx |       263231 |       263231 |       263231 |xxxxxxxxxxxxx |xxxxxxxxxxxxx |xxxxxxxxxxxxx |xxxxxxxxxxxxx |       525375 |       525375 |       525375 |xxxxxxxxxxxxx |xxxxxxxxxxxxx |xxxxxxxxxxxxx |xxxxxxxxxxxxx |      1049663 |      1049663 |      1049663 |xxxxxxxxxxxxx |xxxxxxxxxxxxx |xxxxxxxxxxxxx |xxxxxxxxxxxxx |      2099032 |      2099032 |      2099032 |xxxxxxxxxxxxx |xxxxxxxxxxxxx |xxxxxxxxxxxxx |xxxxxxxxxxxxx |      4196955 |      4196955 |      4196955 |xxxxxxxxxxxxx |xxxxxxxxxxxxx |xxxxxxxxxxxxx |xxxxxxxxxxxxx |      8392798 |      8392798 |      8392798 |
bpred_bimod.updates                           9239 |         9239 |         9239 |xxxxxxxxxxxxx |xxxxxxxxxxxxx |xxxxxxxxxxxxx |xxxxxxxxxxxxx |        17471 |        17471 |        17471 |xxxxxxxxxxxxx |xxxxxxxxxxxxx |xxxxxxxxxxxxx |xxxxxxxxxxxxx |        33855 |        33855 |        33855 |xxxxxxxxxxxxx |xxxxxxxxxxxxx |xxxxxxxxxxxxx |xxxxxxxxxxxxx |        66623 |        66623 |        66623 |xxxxxxxxxxxxx |xxxxxxxxxxxxx |xxxxxxxxxxxxx |xxxxxxxxxxxxx |       132159 |       132159 |       132159 |xxxxxxxxxxxxx |xxxxxxxxxxxxx |xxxxxxxxxxxxx |xxxxxxxxxxxxx |       263231 |       263231 |       263231 |xxxxxxxxxxxxx |xxxxxxxxxxxxx |xxxxxxxxxxxxx |xxxxxxxxxxxxx |       525375 |       525375 |       525375 |xxxxxxxxxxxxx |xxxxxxxxxxxxx |xxxxxxxxxxxxx |xxxxxxxxxxxxx |      1049663 |      1049663 |      1049663 |xxxxxxxxxxxxx |xxxxxxxxxxxxx |xxxxxxxxxxxxx |xxxxxxxxxxxxx |      2099032 |      2099032 |      2099032 |xxxxxxxxxxxxx |xxxxxxxxxxxxx |xxxxxxxxxxxxx |xxxxxxxxxxxxx |      4196955 |      4196955 |      4196955 |xxxxxxxxxxxxx |xxxxxxxxxxxxx |xxxxxxxxxxxxx |xxxxxxxxxxxxx |      8392798 |      8392798 |      8392798 |
bpred_bimod.addr_hits                         9037 |         9039 |         9040 |xxxxxxxxxxxxx |xxxxxxxxxxxxx |xxxxxxxxxxxxx |xxxxxxxxxxxxx |        17262 |        17264 |        17265 |xxxxxxxxxxxxx |xxxxxxxxxxxxx |xxxxxxxxxxxxx |xxxxxxxxxxxxx |        33647 |        33649 |        33650 |xxxxxxxxxxxxx |xxxxxxxxxxxxx |xxxxxxxxxxxxx |xxxxxxxxxxxxx |        66415 |        66417 |        66418 |xxxxxxxxxxxxx |xxxxxxxxxxxxx |xxxxxxxxxxxxx |xxxxxxxxxxxxx |       131951 |       131953 |       131954 |xxxxxxxxxxxxx |xxxxxxxxxxxxx |xxxxxxxxxxxxx |xxxxxxxxxxxxx |       263023 |       263025 |       263026 |xxxxxxxxxxxxx |xxxxxxxxxxxxx |xxxxxxxxxxxxx |xxxxxxxxxxxxx |       525167 |       525169 |       525170 |xxxxxxxxxxxxx |xxxxxxxxxxxxx |xxxxxxxxxxxxx |xxxxxxxxxxxxx |      1049455 |      1049457 |      1049458 |xxxxxxxxxxxxx |xxxxxxxxxxxxx |xxxxxxxxxxxxx |xxxxxxxxxxxxx |      2098801 |      2098802 |      2098802 |xxxxxxxxxxxxx |xxxxxxxxxxxxx |xxxxxxxxxxxxx |xxxxxxxxxxxxx |      4196724 |      4196725 |      4196725 |xxxxxxxxxxxxx |xxxxxxxxxxxxx |xxxxxxxxxxxxx |xxxxxxxxxxxxx |      8392567 |      8392568 |      8392568 |
bpred_bimod.dir_hits                          9136 |         9140 |         9141 |xxxxxxxxxxxxx |xxxxxxxxxxxxx |xxxxxxxxxxxxx |xxxxxxxxxxxxx |        17366 |        17369 |        17370 |xxxxxxxxxxxxx |xxxxxxxxxxxxx |xxxxxxxxxxxxx |xxxxxxxxxxxxx |        33751 |        33754 |        33755 |xxxxxxxxxxxxx |xxxxxxxxxxxxx |xxxxxxxxxxxxx |xxxxxxxxxxxxx |        66518 |        66521 |        66522 |xxxxxxxxxxxxx |xxxxxxxxxxxxx |xxxxxxxxxxxxx |xxxxxxxxxxxxx |       132054 |       132057 |       132058 |xxxxxxxxxxxxx |xxxxxxxxxxxxx |xxxxxxxxxxxxx |xxxxxxxxxxxxx |       263127 |       263130 |       263131 |xxxxxxxxxxxxx |xxxxxxxxxxxxx |xxxxxxxxxxxxx |xxxxxxxxxxxxx |       525271 |       525274 |       525275 |xxxxxxxxxxxxx |xxxxxxxxxxxxx |xxxxxxxxxxxxx |xxxxxxxxxxxxx |      1049559 |      1049562 |      1049563 |xxxxxxxxxxxxx |xxxxxxxxxxxxx |xxxxxxxxxxxxx |xxxxxxxxxxxxx |      2098916 |      2098917 |      2098918 |xxxxxxxxxxxxx |xxxxxxxxxxxxx |xxxxxxxxxxxxx |xxxxxxxxxxxxx |      4196839 |      4196840 |      4196841 |xxxxxxxxxxxxx |xxxxxxxxxxxxx |xxxxxxxxxxxxx |xxxxxxxxxxxxx |      8392682 |      8392683 |      8392684 |
bpred_bimod.misses                             103 |           99 |           98 |xxxxxxxxxxxxx |xxxxxxxxxxxxx |xxxxxxxxxxxxx |xxxxxxxxxxxxx |          105 |          102 |          101 |xxxxxxxxxxxxx |xxxxxxxxxxxxx |xxxxxxxxxxxxx |xxxxxxxxxxxxx |          104 |          101 |          100 |xxxxxxxxxxxxx |xxxxxxxxxxxxx |xxxxxxxxxxxxx |xxxxxxxxxxxxx |          105 |          102 |          101 |xxxxxxxxxxxxx |xxxxxxxxxxxxx |xxxxxxxxxxxxx |xxxxxxxxxxxxx |          105 |          102 |          101 |xxxxxxxxxxxxx |xxxxxxxxxxxxx |xxxxxxxxxxxxx |xxxxxxxxxxxxx |          104 |          101 |          100 |xxxxxxxxxxxxx |xxxxxxxxxxxxx |xxxxxxxxxxxxx |xxxxxxxxxxxxx |          104 |          101 |          100 |xxxxxxxxxxxxx |xxxxxxxxxxxxx |xxxxxxxxxxxxx |xxxxxxxxxxxxx |          104 |          101 |          100 |xxxxxxxxxxxxx |xxxxxxxxxxxxx |xxxxxxxxxxxxx |xxxxxxxxxxxxx |          116 |          115 |          114 |xxxxxxxxxxxxx |xxxxxxxxxxxxx |xxxxxxxxxxxxx |xxxxxxxxxxxxx |          116 |          115 |          114 |xxxxxxxxxxxxx |xxxxxxxxxxxxx |xxxxxxxxxxxxx |xxxxxxxxxxxxx |          116 |          115 |          114 |
bpred_bimod.jr_hits                             61 |           61 |           61 |xxxxxxxxxxxxx |xxxxxxxxxxxxx |xxxxxxxxxxxxx |xxxxxxxxxxxxx |           69 |           69 |           69 |xxxxxxxxxxxxx |xxxxxxxxxxxxx |xxxxxxxxxxxxx |xxxxxxxxxxxxx |           69 |           69 |           69 |xxxxxxxxxxxxx |xxxxxxxxxxxxx |xxxxxxxxxxxxx |xxxxxxxxxxxxx |           69 |           69 |           69 |xxxxxxxxxxxxx |xxxxxxxxxxxxx |xxxxxxxxxxxxx |xxxxxxxxxxxxx |           69 |           69 |           69 |xxxxxxxxxxxxx |xxxxxxxxxxxxx |xxxxxxxxxxxxx |xxxxxxxxxxxxx |           69 |           69 |           69 |xxxxxxxxxxxxx |xxxxxxxxxxxxx |xxxxxxxxxxxxx |xxxxxxxxxxxxx |           69 |           69 |           69 |xxxxxxxxxxxxx |xxxxxxxxxxxxx |xxxxxxxxxxxxx |xxxxxxxxxxxxx |           69 |           69 |           69 |xxxxxxxxxxxxx |xxxxxxxxxxxxx |xxxxxxxxxxxxx |xxxxxxxxxxxxx |           72 |           72 |           72 |xxxxxxxxxxxxx |xxxxxxxxxxxxx |xxxxxxxxxxxxx |xxxxxxxxxxxxx |           72 |           72 |           72 |xxxxxxxxxxxxx |xxxxxxxxxxxxx |xxxxxxxxxxxxx |xxxxxxxxxxxxx |           72 |           72 |           72 |
bpred_bimod.jr_seen                             61 |           61 |           61 |xxxxxxxxxxxxx |xxxxxxxxxxxxx |xxxxxxxxxxxxx |xxxxxxxxxxxxx |           70 |           70 |           70 |xxxxxxxxxxxxx |xxxxxxxxxxxxx |xxxxxxxxxxxxx |xxxxxxxxxxxxx |           70 |           70 |           70 |xxxxxxxxxxxxx |xxxxxxxxxxxxx |xxxxxxxxxxxxx |xxxxxxxxxxxxx |           70 |           70 |           70 |xxxxxxxxxxxxx |xxxxxxxxxxxxx |xxxxxxxxxxxxx |xxxxxxxxxxxxx |           70 |           70 |           70 |xxxxxxxxxxxxx |xxxxxxxxxxxxx |xxxxxxxxxxxxx |xxxxxxxxxxxxx |           70 |           70 |           70 |xxxxxxxxxxxxx |xxxxxxxxxxxxx |xxxxxxxxxxxxx |xxxxxxxxxxxxx |           70 |           70 |           70 |xxxxxxxxxxxxx |xxxxxxxxxxxxx |xxxxxxxxxxxxx |xxxxxxxxxxxxx |           70 |           70 |           70 |xxxxxxxxxxxxx |xxxxxxxxxxxxx |xxxxxxxxxxxxx |xxxxxxxxxxxxx |           73 |           73 |           73 |xxxxxxxxxxxxx |xxxxxxxxxxxxx |xxxxxxxxxxxxx |xxxxxxxxxxxxx |           73 |           73 |           73 |xxxxxxxxxxxxx |xxxxxxxxxxxxx |xxxxxxxxxxxxx |xxxxxxxxxxxxx |           73 |           73 |           73 |
bpred_bimod.jr_non_ras_hits.PP                   0 |            0 |            0 |xxxxxxxxxxxxx |xxxxxxxxxxxxx |xxxxxxxxxxxxx |xxxxxxxxxxxxx |            0 |            0 |            0 |xxxxxxxxxxxxx |xxxxxxxxxxxxx |xxxxxxxxxxxxx |xxxxxxxxxxxxx |            0 |            0 |            0 |xxxxxxxxxxxxx |xxxxxxxxxxxxx |xxxxxxxxxxxxx |xxxxxxxxxxxxx |            0 |            0 |            0 |xxxxxxxxxxxxx |xxxxxxxxxxxxx |xxxxxxxxxxxxx |xxxxxxxxxxxxx |            0 |            0 |            0 |xxxxxxxxxxxxx |xxxxxxxxxxxxx |xxxxxxxxxxxxx |xxxxxxxxxxxxx |            0 |            0 |            0 |xxxxxxxxxxxxx |xxxxxxxxxxxxx |xxxxxxxxxxxxx |xxxxxxxxxxxxx |            0 |            0 |            0 |xxxxxxxxxxxxx |xxxxxxxxxxxxx |xxxxxxxxxxxxx |xxxxxxxxxxxxx |            0 |            0 |            0 |xxxxxxxxxxxxx |xxxxxxxxxxxxx |xxxxxxxxxxxxx |xxxxxxxxxxxxx |            0 |            0 |            0 |xxxxxxxxxxxxx |xxxxxxxxxxxxx |xxxxxxxxxxxxx |xxxxxxxxxxxxx |            0 |            0 |            0 |xxxxxxxxxxxxx |xxxxxxxxxxxxx |xxxxxxxxxxxxx |xxxxxxxxxxxxx |            0 |            0 |            0 |
bpred_bimod.jr_non_ras_seen.PP                   0 |            0 |            0 |xxxxxxxxxxxxx |xxxxxxxxxxxxx |xxxxxxxxxxxxx |xxxxxxxxxxxxx |            0 |            0 |            0 |xxxxxxxxxxxxx |xxxxxxxxxxxxx |xxxxxxxxxxxxx |xxxxxxxxxxxxx |            0 |            0 |            0 |xxxxxxxxxxxxx |xxxxxxxxxxxxx |xxxxxxxxxxxxx |xxxxxxxxxxxxx |            0 |            0 |            0 |xxxxxxxxxxxxx |xxxxxxxxxxxxx |xxxxxxxxxxxxx |xxxxxxxxxxxxx |            0 |            0 |            0 |xxxxxxxxxxxxx |xxxxxxxxxxxxx |xxxxxxxxxxxxx |xxxxxxxxxxxxx |            0 |            0 |            0 |xxxxxxxxxxxxx |xxxxxxxxxxxxx |xxxxxxxxxxxxx |xxxxxxxxxxxxx |            0 |            0 |            0 |xxxxxxxxxxxxx |xxxxxxxxxxxxx |xxxxxxxxxxxxx |xxxxxxxxxxxxx |            0 |            0 |            0 |xxxxxxxxxxxxx |xxxxxxxxxxxxx |xxxxxxxxxxxxx |xxxxxxxxxxxxx |            1 |            1 |            1 |xxxxxxxxxxxxx |xxxxxxxxxxxxx |xxxxxxxxxxxxx |xxxxxxxxxxxxx |            1 |            1 |            1 |xxxxxxxxxxxxx |xxxxxxxxxxxxx |xxxxxxxxxxxxx |xxxxxxxxxxxxx |            1 |            1 |            1 |
bpred_bimod.bpred_addr_rate                 0.9781 |       0.9784 |       0.9785 |xxxxxxxxxxxxx |xxxxxxxxxxxxx |xxxxxxxxxxxxx |xxxxxxxxxxxxx |       0.9880 |       0.9882 |       0.9882 |xxxxxxxxxxxxx |xxxxxxxxxxxxx |xxxxxxxxxxxxx |xxxxxxxxxxxxx |       0.9939 |       0.9939 |       0.9939 |xxxxxxxxxxxxx |xxxxxxxxxxxxx |xxxxxxxxxxxxx |xxxxxxxxxxxxx |       0.9969 |       0.9969 |       0.9969 |xxxxxxxxxxxxx |xxxxxxxxxxxxx |xxxxxxxxxxxxx |xxxxxxxxxxxxx |       0.9984 |       0.9984 |       0.9984 |xxxxxxxxxxxxx |xxxxxxxxxxxxx |xxxxxxxxxxxxx |xxxxxxxxxxxxx |       0.9992 |       0.9992 |       0.9992 |xxxxxxxxxxxxx |xxxxxxxxxxxxx |xxxxxxxxxxxxx |xxxxxxxxxxxxx |       0.9996 |       0.9996 |       0.9996 |xxxxxxxxxxxxx |xxxxxxxxxxxxx |xxxxxxxxxxxxx |xxxxxxxxxxxxx |       0.9998 |       0.9998 |       0.9998 |xxxxxxxxxxxxx |xxxxxxxxxxxxx |xxxxxxxxxxxxx |xxxxxxxxxxxxx |       0.9999 |       0.9999 |       0.9999 |xxxxxxxxxxxxx |xxxxxxxxxxxxx |xxxxxxxxxxxxx |xxxxxxxxxxxxx |       0.9999 |       0.9999 |       0.9999 |xxxxxxxxxxxxx |xxxxxxxxxxxxx |xxxxxxxxxxxxx |xxxxxxxxxxxxx |       1.0000 |       1.0000 |       1.0000 |
bpred_bimod.bpred_dir_rate                  0.9889 |       0.9893 |       0.9894 |xxxxxxxxxxxxx |xxxxxxxxxxxxx |xxxxxxxxxxxxx |xxxxxxxxxxxxx |       0.9940 |       0.9942 |       0.9942 |xxxxxxxxxxxxx |xxxxxxxxxxxxx |xxxxxxxxxxxxx |xxxxxxxxxxxxx |       0.9969 |       0.9970 |       0.9970 |xxxxxxxxxxxxx |xxxxxxxxxxxxx |xxxxxxxxxxxxx |xxxxxxxxxxxxx |       0.9984 |       0.9985 |       0.9985 |xxxxxxxxxxxxx |xxxxxxxxxxxxx |xxxxxxxxxxxxx |xxxxxxxxxxxxx |       0.9992 |       0.9992 |       0.9992 |xxxxxxxxxxxxx |xxxxxxxxxxxxx |xxxxxxxxxxxxx |xxxxxxxxxxxxx |       0.9996 |       0.9996 |       0.9996 |xxxxxxxxxxxxx |xxxxxxxxxxxxx |xxxxxxxxxxxxx |xxxxxxxxxxxxx |       0.9998 |       0.9998 |       0.9998 |xxxxxxxxxxxxx |xxxxxxxxxxxxx |xxxxxxxxxxxxx |xxxxxxxxxxxxx |       0.9999 |       0.9999 |       0.9999 |xxxxxxxxxxxxx |xxxxxxxxxxxxx |xxxxxxxxxxxxx |xxxxxxxxxxxxx |       0.9999 |       0.9999 |       0.9999 |xxxxxxxxxxxxx |xxxxxxxxxxxxx |xxxxxxxxxxxxx |xxxxxxxxxxxxx |       1.0000 |       1.0000 |       1.0000 |xxxxxxxxxxxxx |xxxxxxxxxxxxx |xxxxxxxxxxxxx |xxxxxxxxxxxxx |       1.0000 |       1.0000 |       1.0000 |
bpred_bimod.bpred_jr_rate                   1.0000 |       1.0000 |       1.0000 |xxxxxxxxxxxxx |xxxxxxxxxxxxx |xxxxxxxxxxxxx |xxxxxxxxxxxxx |       0.9857 |       0.9857 |       0.9857 |xxxxxxxxxxxxx |xxxxxxxxxxxxx |xxxxxxxxxxxxx |xxxxxxxxxxxxx |       0.9857 |       0.9857 |       0.9857 |xxxxxxxxxxxxx |xxxxxxxxxxxxx |xxxxxxxxxxxxx |xxxxxxxxxxxxx |       0.9857 |       0.9857 |       0.9857 |xxxxxxxxxxxxx |xxxxxxxxxxxxx |xxxxxxxxxxxxx |xxxxxxxxxxxxx |       0.9857 |       0.9857 |       0.9857 |xxxxxxxxxxxxx |xxxxxxxxxxxxx |xxxxxxxxxxxxx |xxxxxxxxxxxxx |       0.9857 |       0.9857 |       0.9857 |xxxxxxxxxxxxx |xxxxxxxxxxxxx |xxxxxxxxxxxxx |xxxxxxxxxxxxx |       0.9857 |       0.9857 |       0.9857 |xxxxxxxxxxxxx |xxxxxxxxxxxxx |xxxxxxxxxxxxx |xxxxxxxxxxxxx |       0.9857 |       0.9857 |       0.9857 |xxxxxxxxxxxxx |xxxxxxxxxxxxx |xxxxxxxxxxxxx |xxxxxxxxxxxxx |       0.9863 |       0.9863 |       0.9863 |xxxxxxxxxxxxx |xxxxxxxxxxxxx |xxxxxxxxxxxxx |xxxxxxxxxxxxx |       0.9863 |       0.9863 |       0.9863 |xxxxxxxxxxxxx |xxxxxxxxxxxxx |xxxxxxxxxxxxx |xxxxxxxxxxxxx |       0.9863 |       0.9863 |       0.9863 |
bpred_bimod.bpred_jr_non_ras_rate.PP       <error: |      <error: |      <error: |xxxxxxxxxxxxx |xxxxxxxxxxxxx |xxxxxxxxxxxxx |xxxxxxxxxxxxx |      <error: |      <error: |      <error: |xxxxxxxxxxxxx |xxxxxxxxxxxxx |xxxxxxxxxxxxx |xxxxxxxxxxxxx |      <error: |      <error: |      <error: |xxxxxxxxxxxxx |xxxxxxxxxxxxx |xxxxxxxxxxxxx |xxxxxxxxxxxxx |      <error: |      <error: |      <error: |xxxxxxxxxxxxx |xxxxxxxxxxxxx |xxxxxxxxxxxxx |xxxxxxxxxxxxx |      <error: |      <error: |      <error: |xxxxxxxxxxxxx |xxxxxxxxxxxxx |xxxxxxxxxxxxx |xxxxxxxxxxxxx |      <error: |      <error: |      <error: |xxxxxxxxxxxxx |xxxxxxxxxxxxx |xxxxxxxxxxxxx |xxxxxxxxxxxxx |      <error: |      <error: |      <error: |xxxxxxxxxxxxx |xxxxxxxxxxxxx |xxxxxxxxxxxxx |xxxxxxxxxxxxx |      <error: |      <error: |      <error: |xxxxxxxxxxxxx |xxxxxxxxxxxxx |xxxxxxxxxxxxx |xxxxxxxxxxxxx |       0.0000 |       0.0000 |       0.0000 |xxxxxxxxxxxxx |xxxxxxxxxxxxx |xxxxxxxxxxxxx |xxxxxxxxxxxxx |       0.0000 |       0.0000 |       0.0000 |xxxxxxxxxxxxx |xxxxxxxxxxxxx |xxxxxxxxxxxxx |xxxxxxxxxxxxx |       0.0000 |       0.0000 |       0.0000 |
bpred_bimod.retstack_pushes                     63 |           63 |           63 |xxxxxxxxxxxxx |xxxxxxxxxxxxx |xxxxxxxxxxxxx |xxxxxxxxxxxxx |           72 |           72 |           72 |xxxxxxxxxxxxx |xxxxxxxxxxxxx |xxxxxxxxxxxxx |xxxxxxxxxxxxx |           72 |           72 |           72 |xxxxxxxxxxxxx |xxxxxxxxxxxxx |xxxxxxxxxxxxx |xxxxxxxxxxxxx |           72 |           72 |           72 |xxxxxxxxxxxxx |xxxxxxxxxxxxx |xxxxxxxxxxxxx |xxxxxxxxxxxxx |           72 |           72 |           72 |xxxxxxxxxxxxx |xxxxxxxxxxxxx |xxxxxxxxxxxxx |xxxxxxxxxxxxx |           72 |           72 |           72 |xxxxxxxxxxxxx |xxxxxxxxxxxxx |xxxxxxxxxxxxx |xxxxxxxxxxxxx |           72 |           72 |           72 |xxxxxxxxxxxxx |xxxxxxxxxxxxx |xxxxxxxxxxxxx |xxxxxxxxxxxxx |           72 |           72 |           72 |xxxxxxxxxxxxx |xxxxxxxxxxxxx |xxxxxxxxxxxxx |xxxxxxxxxxxxx |           74 |           74 |           74 |xxxxxxxxxxxxx |xxxxxxxxxxxxx |xxxxxxxxxxxxx |xxxxxxxxxxxxx |           74 |           74 |           74 |xxxxxxxxxxxxx |xxxxxxxxxxxxx |xxxxxxxxxxxxx |xxxxxxxxxxxxx |           74 |           74 |           74 |
bpred_bimod.retstack_pops                       61 |           61 |           61 |xxxxxxxxxxxxx |xxxxxxxxxxxxx |xxxxxxxxxxxxx |xxxxxxxxxxxxx |           70 |           70 |           70 |xxxxxxxxxxxxx |xxxxxxxxxxxxx |xxxxxxxxxxxxx |xxxxxxxxxxxxx |           70 |           70 |           70 |xxxxxxxxxxxxx |xxxxxxxxxxxxx |xxxxxxxxxxxxx |xxxxxxxxxxxxx |           70 |           70 |           70 |xxxxxxxxxxxxx |xxxxxxxxxxxxx |xxxxxxxxxxxxx |xxxxxxxxxxxxx |           70 |           70 |           70 |xxxxxxxxxxxxx |xxxxxxxxxxxxx |xxxxxxxxxxxxx |xxxxxxxxxxxxx |           70 |           70 |           70 |xxxxxxxxxxxxx |xxxxxxxxxxxxx |xxxxxxxxxxxxx |xxxxxxxxxxxxx |           70 |           70 |           70 |xxxxxxxxxxxxx |xxxxxxxxxxxxx |xxxxxxxxxxxxx |xxxxxxxxxxxxx |           70 |           70 |           70 |xxxxxxxxxxxxx |xxxxxxxxxxxxx |xxxxxxxxxxxxx |xxxxxxxxxxxxx |           72 |           72 |           72 |xxxxxxxxxxxxx |xxxxxxxxxxxxx |xxxxxxxxxxxxx |xxxxxxxxxxxxx |           72 |           72 |           72 |xxxxxxxxxxxxx |xxxxxxxxxxxxx |xxxxxxxxxxxxx |xxxxxxxxxxxxx |           72 |           72 |           72 |
bpred_bimod.used_ras.PP                         61 |           61 |           61 |xxxxxxxxxxxxx |xxxxxxxxxxxxx |xxxxxxxxxxxxx |xxxxxxxxxxxxx |           70 |           70 |           70 |xxxxxxxxxxxxx |xxxxxxxxxxxxx |xxxxxxxxxxxxx |xxxxxxxxxxxxx |           70 |           70 |           70 |xxxxxxxxxxxxx |xxxxxxxxxxxxx |xxxxxxxxxxxxx |xxxxxxxxxxxxx |           70 |           70 |           70 |xxxxxxxxxxxxx |xxxxxxxxxxxxx |xxxxxxxxxxxxx |xxxxxxxxxxxxx |           70 |           70 |           70 |xxxxxxxxxxxxx |xxxxxxxxxxxxx |xxxxxxxxxxxxx |xxxxxxxxxxxxx |           70 |           70 |           70 |xxxxxxxxxxxxx |xxxxxxxxxxxxx |xxxxxxxxxxxxx |xxxxxxxxxxxxx |           70 |           70 |           70 |xxxxxxxxxxxxx |xxxxxxxxxxxxx |xxxxxxxxxxxxx |xxxxxxxxxxxxx |           70 |           70 |           70 |xxxxxxxxxxxxx |xxxxxxxxxxxxx |xxxxxxxxxxxxx |xxxxxxxxxxxxx |           72 |           72 |           72 |xxxxxxxxxxxxx |xxxxxxxxxxxxx |xxxxxxxxxxxxx |xxxxxxxxxxxxx |           72 |           72 |           72 |xxxxxxxxxxxxx |xxxxxxxxxxxxx |xxxxxxxxxxxxx |xxxxxxxxxxxxx |           72 |           72 |           72 |
bpred_bimod.ras_hits.PP                         61 |           61 |           61 |xxxxxxxxxxxxx |xxxxxxxxxxxxx |xxxxxxxxxxxxx |xxxxxxxxxxxxx |           69 |           69 |           69 |xxxxxxxxxxxxx |xxxxxxxxxxxxx |xxxxxxxxxxxxx |xxxxxxxxxxxxx |           69 |           69 |           69 |xxxxxxxxxxxxx |xxxxxxxxxxxxx |xxxxxxxxxxxxx |xxxxxxxxxxxxx |           69 |           69 |           69 |xxxxxxxxxxxxx |xxxxxxxxxxxxx |xxxxxxxxxxxxx |xxxxxxxxxxxxx |           69 |           69 |           69 |xxxxxxxxxxxxx |xxxxxxxxxxxxx |xxxxxxxxxxxxx |xxxxxxxxxxxxx |           69 |           69 |           69 |xxxxxxxxxxxxx |xxxxxxxxxxxxx |xxxxxxxxxxxxx |xxxxxxxxxxxxx |           69 |           69 |           69 |xxxxxxxxxxxxx |xxxxxxxxxxxxx |xxxxxxxxxxxxx |xxxxxxxxxxxxx |           69 |           69 |           69 |xxxxxxxxxxxxx |xxxxxxxxxxxxx |xxxxxxxxxxxxx |xxxxxxxxxxxxx |           72 |           72 |           72 |xxxxxxxxxxxxx |xxxxxxxxxxxxx |xxxxxxxxxxxxx |xxxxxxxxxxxxx |           72 |           72 |           72 |xxxxxxxxxxxxx |xxxxxxxxxxxxx |xxxxxxxxxxxxx |xxxxxxxxxxxxx |           72 |           72 |           72 |
bpred_bimod.ras_rate.PP                     1.0000 |       1.0000 |       1.0000 |xxxxxxxxxxxxx |xxxxxxxxxxxxx |xxxxxxxxxxxxx |xxxxxxxxxxxxx |       0.9857 |       0.9857 |       0.9857 |xxxxxxxxxxxxx |xxxxxxxxxxxxx |xxxxxxxxxxxxx |xxxxxxxxxxxxx |       0.9857 |       0.9857 |       0.9857 |xxxxxxxxxxxxx |xxxxxxxxxxxxx |xxxxxxxxxxxxx |xxxxxxxxxxxxx |       0.9857 |       0.9857 |       0.9857 |xxxxxxxxxxxxx |xxxxxxxxxxxxx |xxxxxxxxxxxxx |xxxxxxxxxxxxx |       0.9857 |       0.9857 |       0.9857 |xxxxxxxxxxxxx |xxxxxxxxxxxxx |xxxxxxxxxxxxx |xxxxxxxxxxxxx |       0.9857 |       0.9857 |       0.9857 |xxxxxxxxxxxxx |xxxxxxxxxxxxx |xxxxxxxxxxxxx |xxxxxxxxxxxxx |       0.9857 |       0.9857 |       0.9857 |xxxxxxxxxxxxx |xxxxxxxxxxxxx |xxxxxxxxxxxxx |xxxxxxxxxxxxx |       0.9857 |       0.9857 |       0.9857 |xxxxxxxxxxxxx |xxxxxxxxxxxxx |xxxxxxxxxxxxx |xxxxxxxxxxxxx |       1.0000 |       1.0000 |       1.0000 |xxxxxxxxxxxxx |xxxxxxxxxxxxx |xxxxxxxxxxxxx |xxxxxxxxxxxxx |       1.0000 |       1.0000 |       1.0000 |xxxxxxxxxxxxx |xxxxxxxxxxxxx |xxxxxxxxxxxxx |xxxxxxxxxxxxx |       1.0000 |       1.0000 |       1.0000 |
bpred_2lev.lookups                   xxxxxxxxxxxxx |xxxxxxxxxxxxx |xxxxxxxxxxxxx |         9239 |         9239 |         9239 |         9239 |xxxxxxxxxxxxx |xxxxxxxxxxxxx |xxxxxxxxxxxxx |        17471 |        17471 |        17471 |        17471 |xxxxxxxxxxxxx |xxxxxxxxxxxxx |xxxxxxxxxxxxx |        33855 |        33855 |        33855 |        33855 |xxxxxxxxxxxxx |xxxxxxxxxxxxx |xxxxxxxxxxxxx |        66623 |        66623 |        66623 |        66623 |xxxxxxxxxxxxx |xxxxxxxxxxxxx |xxxxxxxxxxxxx |       132159 |       132159 |       132159 |       132159 |xxxxxxxxxxxxx |xxxxxxxxxxxxx |xxxxxxxxxxxxx |       263231 |       263231 |       263231 |       263231 |xxxxxxxxxxxxx |xxxxxxxxxxxxx |xxxxxxxxxxxxx |       525375 |       525375 |       525375 |       525375 |xxxxxxxxxxxxx |xxxxxxxxxxxxx |xxxxxxxxxxxxx |      1049663 |      1049663 |      1049663 |      1049663 |xxxxxxxxxxxxx |xxxxxxxxxxxxx |xxxxxxxxxxxxx |      2099032 |      2099032 |      2099032 |      2099032 |xxxxxxxxxxxxx |xxxxxxxxxxxxx |xxxxxxxxxxxxx |      4196955 |      4196955 |      4196955 |      4196955 |xxxxxxxxxxxxx |xxxxxxxxxxxxx |xxxxxxxxxxxxx |      8392798 |      8392798 |      8392798 |      8392798 |
[...]
bpred_2lev.retstack_pops             xxxxxxxxxxxxx |xxxxxxxxxxxxx |xxxxxxxxxxxxx |           61 |           61 |           61 |           61 |xxxxxxxxxxxxx |xxxxxxxxxxxxx |xxxxxxxxxxxxx |           70 |           70 |           70 |           70 |xxxxxxxxxxxxx |xxxxxxxxxxxxx |xxxxxxxxxxxxx |           70 |           70 |           70 |           70 |xxxxxxxxxxxxx |xxxxxxxxxxxxx |xxxxxxxxxxxxx |           70 |           70 |           70 |           70 |xxxxxxxxxxxxx |xxxxxxxxxxxxx |xxxxxxxxxxxxx |           70 |           70 |           70 |           70 |xxxxxxxxxxxxx |xxxxxxxxxxxxx |xxxxxxxxxxxxx |           70 |           70 |           70 |           70 |xxxxxxxxxxxxx |xxxxxxxxxxxxx |xxxxxxxxxxxxx |           70 |           70 |           70 |           70 |xxxxxxxxxxxxx |xxxxxxxxxxxxx |xxxxxxxxxxxxx |           70 |           70 |           70 |           70 |xxxxxxxxxxxxx |xxxxxxxxxxxxx |xxxxxxxxxxxxx |           72 |           72 |           72 |           72 |xxxxxxxxxxxxx |xxxxxxxxxxxxx |xxxxxxxxxxxxx |           72 |           72 |           72 |           72 |xxxxxxxxxxxxx |xxxxxxxxxxxxx |xxxxxxxxxxxxx |           72 |           72 |           72 |           72 |
bpred_2lev.used_ras.PP               xxxxxxxxxxxxx |xxxxxxxxxxxxx |xxxxxxxxxxxxx |           61 |           61 |           61 |           61 |xxxxxxxxxxxxx |xxxxxxxxxxxxx |xxxxxxxxxxxxx |           70 |           70 |           70 |           70 |xxxxxxxxxxxxx |xxxxxxxxxxxxx |xxxxxxxxxxxxx |           70 |           70 |           70 |           70 |xxxxxxxxxxxxx |xxxxxxxxxxxxx |xxxxxxxxxxxxx |           70 |           70 |           70 |           70 |xxxxxxxxxxxxx |xxxxxxxxxxxxx |xxxxxxxxxxxxx |           70 |           70 |           70 |           70 |xxxxxxxxxxxxx |xxxxxxxxxxxxx |xxxxxxxxxxxxx |           70 |           70 |           70 |           70 |xxxxxxxxxxxxx |xxxxxxxxxxxxx |xxxxxxxxxxxxx |           70 |           70 |           70 |           70 |xxxxxxxxxxxxx |xxxxxxxxxxxxx |xxxxxxxxxxxxx |           70 |           70 |           70 |           70 |xxxxxxxxxxxxx |xxxxxxxxxxxxx |xxxxxxxxxxxxx |           72 |           72 |           72 |           72 |xxxxxxxxxxxxx |xxxxxxxxxxxxx |xxxxxxxxxxxxx |           72 |           72 |           72 |           72 |xxxxxxxxxxxxx |xxxxxxxxxxxxx |xxxxxxxxxxxxx |           72 |           72 |           72 |           72 |
bpred_2lev.ras_hits.PP               xxxxxxxxxxxxx |xxxxxxxxxxxxx |xxxxxxxxxxxxx |           61 |           61 |           61 |           61 |xxxxxxxxxxxxx |xxxxxxxxxxxxx |xxxxxxxxxxxxx |           69 |           69 |           69 |           69 |xxxxxxxxxxxxx |xxxxxxxxxxxxx |xxxxxxxxxxxxx |           69 |           69 |           69 |           69 |xxxxxxxxxxxxx |xxxxxxxxxxxxx |xxxxxxxxxxxxx |           69 |           69 |           69 |           69 |xxxxxxxxxxxxx |xxxxxxxxxxxxx |xxxxxxxxxxxxx |           69 |           69 |           69 |           69 |xxxxxxxxxxxxx |xxxxxxxxxxxxx |xxxxxxxxxxxxx |           69 |           69 |           69 |           69 |xxxxxxxxxxxxx |xxxxxxxxxxxxx |xxxxxxxxxxxxx |           69 |           69 |           69 |           69 |xxxxxxxxxxxxx |xxxxxxxxxxxxx |xxxxxxxxxxxxx |           69 |           69 |           69 |           69 |xxxxxxxxxxxxx |xxxxxxxxxxxxx |xxxxxxxxxxxxx |           72 |           72 |           72 |           72 |xxxxxxxxxxxxx |xxxxxxxxxxxxx |xxxxxxxxxxxxx |           72 |           72 |           72 |           72 |xxxxxxxxxxxxx |xxxxxxxxxxxxx |xxxxxxxxxxxxx |           72 |           72 |           72 |           72 |
bpred_2lev.ras_rate.PP               xxxxxxxxxxxxx |xxxxxxxxxxxxx |xxxxxxxxxxxxx |       1.0000 |       1.0000 |       1.0000 |       1.0000 |xxxxxxxxxxxxx |xxxxxxxxxxxxx |xxxxxxxxxxxxx |       0.9857 |       0.9857 |       0.9857 |       0.9857 |xxxxxxxxxxxxx |xxxxxxxxxxxxx |xxxxxxxxxxxxx |       0.9857 |       0.9857 |       0.9857 |       0.9857 |xxxxxxxxxxxxx |xxxxxxxxxxxxx |xxxxxxxxxxxxx |       0.9857 |       0.9857 |       0.9857 |       0.9857 |xxxxxxxxxxxxx |xxxxxxxxxxxxx |xxxxxxxxxxxxx |       0.9857 |       0.9857 |       0.9857 |       0.9857 |xxxxxxxxxxxxx |xxxxxxxxxxxxx |xxxxxxxxxxxxx |       0.9857 |       0.9857 |       0.9857 |       0.9857 |xxxxxxxxxxxxx |xxxxxxxxxxxxx |xxxxxxxxxxxxx |       0.9857 |       0.9857 |       0.9857 |       0.9857 |xxxxxxxxxxxxx |xxxxxxxxxxxxx |xxxxxxxxxxxxx |       0.9857 |       0.9857 |       0.9857 |       0.9857 |xxxxxxxxxxxxx |xxxxxxxxxxxxx |xxxxxxxxxxxxx |       1.0000 |       1.0000 |       1.0000 |       1.0000 |xxxxxxxxxxxxx |xxxxxxxxxxxxx |xxxxxxxxxxxxx |       1.0000 |       1.0000 |       1.0000 |       1.0000 |xxxxxxxxxxxxx |xxxxxxxxxxxxx |xxxxxxxxxxxxx |       1.0000 |       1.0000 |       1.0000 |       1.0000 |

Command list: 
	sslittle-na-sstrix-gcc -Wall -O3 -funroll-loops -finline-functions  -DRANDOM_SIZE=4096 -DOFFSET=7 -DSORT=memory_tuned_radixsort sorts/memory_tuned_radixsort1180698949.c simpleMain.c -o memory_tuned_radixsort245062219
	sim-cache -cache:dl1 dl1:256:32:1:l -cache:dl2 dl2:131072:32:1:l -cache:il1 il1:256:32:1:l -cache:il2 dl2 memory_tuned_radixsort245062219
	sim-cache -cache:dl1 dl1:256:32:1:l -cache:dl2 dl2:65536:32:1:l -cache:il1 il1:256:32:1:l -cache:il2 dl2 memory_tuned_radixsort245062219
	sim-cache -cache:dl1 dl1:1:32:256:l -cache:dl2 dl2:1:32:131072:l -cache:il1 il1:1:32:256:l -cache:il2 dl2 memory_tuned_radixsort245062219
	sim-cache -cache:dl1 dl1:1:32:256:l -cache:dl2 dl2:1:32:65536:l -cache:il1 il1:1:32:256:l -cache:il2 dl2 memory_tuned_radixsort245062219
	sim-bpred -bpred bimod -bpred:bimod 512 memory_tuned_radixsort245062219
	sim-bpred -bpred bimod -bpred:bimod 1024 memory_tuned_radixsort245062219
	sim-bpred -bpred bimod -bpred:bimod 2048 memory_tuned_radixsort245062219
	sim-bpred -bpred 2lev -bpred:2lev 1 512 10 1 memory_tuned_radixsort245062219
	sim-bpred -bpred 2lev -bpred:2lev 1 1024 10 1 memory_tuned_radixsort245062219
	sim-bpred -bpred 2lev -bpred:2lev 1 2048 10 1 memory_tuned_radixsort245062219
	sim-bpred -bpred 2lev -bpred:2lev 1 4096 10 1 memory_tuned_radixsort245062219
	sslittle-na-sstrix-gcc -Wall -O3 -funroll-loops -finline-functions  -DRANDOM_SIZE=8192 -DOFFSET=7 -DSORT=memory_tuned_radixsort sorts/memory_tuned_radixsort1180698949.c simpleMain.c -o memory_tuned_radixsort245062219
	sim-cache -cache:dl1 dl1:256:32:1:l -cache:dl2 dl2:131072:32:1:l -cache:il1 il1:256:32:1:l -cache:il2 dl2 memory_tuned_radixsort245062219
	sim-cache -cache:dl1 dl1:256:32:1:l -cache:dl2 dl2:65536:32:1:l -cache:il1 il1:256:32:1:l -cache:il2 dl2 memory_tuned_radixsort245062219
	sim-cache -cache:dl1 dl1:1:32:256:l -cache:dl2 dl2:1:32:131072:l -cache:il1 il1:1:32:256:l -cache:il2 dl2 memory_tuned_radixsort245062219
	sim-cache -cache:dl1 dl1:1:32:256:l -cache:dl2 dl2:1:32:65536:l -cache:il1 il1:1:32:256:l -cache:il2 dl2 memory_tuned_radixsort245062219
	sim-bpred -bpred bimod -bpred:bimod 512 memory_tuned_radixsort245062219
	sim-bpred -bpred bimod -bpred:bimod 1024 memory_tuned_radixsort245062219
	sim-bpred -bpred bimod -bpred:bimod 2048 memory_tuned_radixsort245062219
	sim-bpred -bpred 2lev -bpred:2lev 1 512 10 1 memory_tuned_radixsort245062219
	sim-bpred -bpred 2lev -bpred:2lev 1 1024 10 1 memory_tuned_radixsort245062219
	sim-bpred -bpred 2lev -bpred:2lev 1 2048 10 1 memory_tuned_radixsort245062219
	sim-bpred -bpred 2lev -bpred:2lev 1 4096 10 1 memory_tuned_radixsort245062219
	sslittle-na-sstrix-gcc -Wall -O3 -funroll-loops -finline-functions  -DRANDOM_SIZE=16384 -DOFFSET=7 -DSORT=memory_tuned_radixsort sorts/memory_tuned_radixsort1180698949.c simpleMain.c -o memory_tuned_radixsort245062219
	sim-cache -cache:dl1 dl1:256:32:1:l -cache:dl2 dl2:131072:32:1:l -cache:il1 il1:256:32:1:l -cache:il2 dl2 memory_tuned_radixsort245062219
	sim-cache -cache:dl1 dl1:256:32:1:l -cache:dl2 dl2:65536:32:1:l -cache:il1 il1:256:32:1:l -cache:il2 dl2 memory_tuned_radixsort245062219
	sim-cache -cache:dl1 dl1:1:32:256:l -cache:dl2 dl2:1:32:131072:l -cache:il1 il1:1:32:256:l -cache:il2 dl2 memory_tuned_radixsort245062219
	sim-cache -cache:dl1 dl1:1:32:256:l -cache:dl2 dl2:1:32:65536:l -cache:il1 il1:1:32:256:l -cache:il2 dl2 memory_tuned_radixsort245062219
	sim-bpred -bpred bimod -bpred:bimod 512 memory_tuned_radixsort245062219
	sim-bpred -bpred bimod -bpred:bimod 1024 memory_tuned_radixsort245062219
	sim-bpred -bpred bimod -bpred:bimod 2048 memory_tuned_radixsort245062219
	sim-bpred -bpred 2lev -bpred:2lev 1 512 10 1 memory_tuned_radixsort245062219
	sim-bpred -bpred 2lev -bpred:2lev 1 1024 10 1 memory_tuned_radixsort245062219
	sim-bpred -bpred 2lev -bpred:2lev 1 2048 10 1 memory_tuned_radixsort245062219
	sim-bpred -bpred 2lev -bpred:2lev 1 4096 10 1 memory_tuned_radixsort245062219
	sslittle-na-sstrix-gcc -Wall -O3 -funroll-loops -finline-functions  -DRANDOM_SIZE=32768 -DOFFSET=7 -DSORT=memory_tuned_radixsort sorts/memory_tuned_radixsort1180698949.c simpleMain.c -o memory_tuned_radixsort245062219
	sim-cache -cache:dl1 dl1:256:32:1:l -cache:dl2 dl2:131072:32:1:l -cache:il1 il1:256:32:1:l -cache:il2 dl2 memory_tuned_radixsort245062219
	sim-cache -cache:dl1 dl1:256:32:1:l -cache:dl2 dl2:65536:32:1:l -cache:il1 il1:256:32:1:l -cache:il2 dl2 memory_tuned_radixsort245062219
	sim-cache -cache:dl1 dl1:1:32:256:l -cache:dl2 dl2:1:32:131072:l -cache:il1 il1:1:32:256:l -cache:il2 dl2 memory_tuned_radixsort245062219
	sim-cache -cache:dl1 dl1:1:32:256:l -cache:dl2 dl2:1:32:65536:l -cache:il1 il1:1:32:256:l -cache:il2 dl2 memory_tuned_radixsort245062219
	sim-bpred -bpred bimod -bpred:bimod 512 memory_tuned_radixsort245062219
	sim-bpred -bpred bimod -bpred:bimod 1024 memory_tuned_radixsort245062219
	sim-bpred -bpred bimod -bpred:bimod 2048 memory_tuned_radixsort245062219
	sim-bpred -bpred 2lev -bpred:2lev 1 512 10 1 memory_tuned_radixsort245062219
	sim-bpred -bpred 2lev -bpred:2lev 1 1024 10 1 memory_tuned_radixsort245062219
	sim-bpred -bpred 2lev -bpred:2lev 1 2048 10 1 memory_tuned_radixsort245062219
	sim-bpred -bpred 2lev -bpred:2lev 1 4096 10 1 memory_tuned_radixsort245062219
	sslittle-na-sstrix-gcc -Wall -O3 -funroll-loops -finline-functions  -DRANDOM_SIZE=65536 -DOFFSET=7 -DSORT=memory_tuned_radixsort sorts/memory_tuned_radixsort1180698949.c simpleMain.c -o memory_tuned_radixsort245062219
	sim-cache -cache:dl1 dl1:256:32:1:l -cache:dl2 dl2:131072:32:1:l -cache:il1 il1:256:32:1:l -cache:il2 dl2 memory_tuned_radixsort245062219
	sim-cache -cache:dl1 dl1:256:32:1:l -cache:dl2 dl2:65536:32:1:l -cache:il1 il1:256:32:1:l -cache:il2 dl2 memory_tuned_radixsort245062219
	sim-cache -cache:dl1 dl1:1:32:256:l -cache:dl2 dl2:1:32:131072:l -cache:il1 il1:1:32:256:l -cache:il2 dl2 memory_tuned_radixsort245062219
	sim-cache -cache:dl1 dl1:1:32:256:l -cache:dl2 dl2:1:32:65536:l -cache:il1 il1:1:32:256:l -cache:il2 dl2 memory_tuned_radixsort245062219
	sim-bpred -bpred bimod -bpred:bimod 512 memory_tuned_radixsort245062219
	sim-bpred -bpred bimod -bpred:bimod 1024 memory_tuned_radixsort245062219
	sim-bpred -bpred bimod -bpred:bimod 2048 memory_tuned_radixsort245062219
	sim-bpred -bpred 2lev -bpred:2lev 1 512 10 1 memory_tuned_radixsort245062219
	sim-bpred -bpred 2lev -bpred:2lev 1 1024 10 1 memory_tuned_radixsort245062219
	sim-bpred -bpred 2lev -bpred:2lev 1 2048 10 1 memory_tuned_radixsort245062219
	sim-bpred -bpred 2lev -bpred:2lev 1 4096 10 1 memory_tuned_radixsort245062219
	sslittle-na-sstrix-gcc -Wall -O3 -funroll-loops -finline-functions  -DRANDOM_SIZE=131072 -DOFFSET=7 -DSORT=memory_tuned_radixsort sorts/memory_tuned_radixsort1180698949.c simpleMain.c -o memory_tuned_radixsort245062219
	sim-cache -cache:dl1 dl1:256:32:1:l -cache:dl2 dl2:131072:32:1:l -cache:il1 il1:256:32:1:l -cache:il2 dl2 memory_tuned_radixsort245062219
	sim-cache -cache:dl1 dl1:256:32:1:l -cache:dl2 dl2:65536:32:1:l -cache:il1 il1:256:32:1:l -cache:il2 dl2 memory_tuned_radixsort245062219
	sim-cache -cache:dl1 dl1:1:32:256:l -cache:dl2 dl2:1:32:131072:l -cache:il1 il1:1:32:256:l -cache:il2 dl2 memory_tuned_radixsort245062219
	sim-cache -cache:dl1 dl1:1:32:256:l -cache:dl2 dl2:1:32:65536:l -cache:il1 il1:1:32:256:l -cache:il2 dl2 memory_tuned_radixsort245062219
	sim-bpred -bpred bimod -bpred:bimod 512 memory_tuned_radixsort245062219
	sim-bpred -bpred bimod -bpred:bimod 1024 memory_tuned_radixsort245062219
	sim-bpred -bpred bimod -bpred:bimod 2048 memory_tuned_radixsort245062219
	sim-bpred -bpred 2lev -bpred:2lev 1 512 10 1 memory_tuned_radixsort245062219
	sim-bpred -bpred 2lev -bpred:2lev 1 1024 10 1 memory_tuned_radixsort245062219
	sim-bpred -bpred 2lev -bpred:2lev 1 2048 10 1 memory_tuned_radixsort245062219
	sim-bpred -bpred 2lev -bpred:2lev 1 4096 10 1 memory_tuned_radixsort245062219
	sslittle-na-sstrix-gcc -Wall -O3 -funroll-loops -finline-functions  -DRANDOM_SIZE=262144 -DOFFSET=7 -DSORT=memory_tuned_radixsort sorts/memory_tuned_radixsort1180698949.c simpleMain.c -o memory_tuned_radixsort245062219
	sim-cache -cache:dl1 dl1:256:32:1:l -cache:dl2 dl2:131072:32:1:l -cache:il1 il1:256:32:1:l -cache:il2 dl2 memory_tuned_radixsort245062219
	sim-cache -cache:dl1 dl1:256:32:1:l -cache:dl2 dl2:65536:32:1:l -cache:il1 il1:256:32:1:l -cache:il2 dl2 memory_tuned_radixsort245062219
	sim-cache -cache:dl1 dl1:1:32:256:l -cache:dl2 dl2:1:32:131072:l -cache:il1 il1:1:32:256:l -cache:il2 dl2 memory_tuned_radixsort245062219
	sim-cache -cache:dl1 dl1:1:32:256:l -cache:dl2 dl2:1:32:65536:l -cache:il1 il1:1:32:256:l -cache:il2 dl2 memory_tuned_radixsort245062219
	sim-bpred -bpred bimod -bpred:bimod 512 memory_tuned_radixsort245062219
	sim-bpred -bpred bimod -bpred:bimod 1024 memory_tuned_radixsort245062219
	sim-bpred -bpred bimod -bpred:bimod 2048 memory_tuned_radixsort245062219
	sim-bpred -bpred 2lev -bpred:2lev 1 512 10 1 memory_tuned_radixsort245062219
	sim-bpred -bpred 2lev -bpred:2lev 1 1024 10 1 memory_tuned_radixsort245062219
	sim-bpred -bpred 2lev -bpred:2lev 1 2048 10 1 memory_tuned_radixsort245062219
	sim-bpred -bpred 2lev -bpred:2lev 1 4096 10 1 memory_tuned_radixsort245062219
	sslittle-na-sstrix-gcc -Wall -O3 -funroll-loops -finline-functions  -DRANDOM_SIZE=524288 -DOFFSET=7 -DSORT=memory_tuned_radixsort sorts/memory_tuned_radixsort1180698949.c simpleMain.c -o memory_tuned_radixsort245062219
	sim-cache -cache:dl1 dl1:256:32:1:l -cache:dl2 dl2:131072:32:1:l -cache:il1 il1:256:32:1:l -cache:il2 dl2 memory_tuned_radixsort245062219
	sim-cache -cache:dl1 dl1:256:32:1:l -cache:dl2 dl2:65536:32:1:l -cache:il1 il1:256:32:1:l -cache:il2 dl2 memory_tuned_radixsort245062219
	sim-cache -cache:dl1 dl1:1:32:256:l -cache:dl2 dl2:1:32:131072:l -cache:il1 il1:1:32:256:l -cache:il2 dl2 memory_tuned_radixsort245062219
	sim-cache -cache:dl1 dl1:1:32:256:l -cache:dl2 dl2:1:32:65536:l -cache:il1 il1:1:32:256:l -cache:il2 dl2 memory_tuned_radixsort245062219
	sim-bpred -bpred bimod -bpred:bimod 512 memory_tuned_radixsort245062219
	sim-bpred -bpred bimod -bpred:bimod 1024 memory_tuned_radixsort245062219
	sim-bpred -bpred bimod -bpred:bimod 2048 memory_tuned_radixsort245062219
	sim-bpred -bpred 2lev -bpred:2lev 1 512 10 1 memory_tuned_radixsort245062219
	sim-bpred -bpred 2lev -bpred:2lev 1 1024 10 1 memory_tuned_radixsort245062219
	sim-bpred -bpred 2lev -bpred:2lev 1 2048 10 1 memory_tuned_radixsort245062219
	sim-bpred -bpred 2lev -bpred:2lev 1 4096 10 1 memory_tuned_radixsort245062219
	sslittle-na-sstrix-gcc -Wall -O3 -funroll-loops -finline-functions  -DRANDOM_SIZE=1048576 -DOFFSET=7 -DSORT=memory_tuned_radixsort sorts/memory_tuned_radixsort1180698949.c simpleMain.c -o memory_tuned_radixsort245062219
	sim-cache -cache:dl1 dl1:256:32:1:l -cache:dl2 dl2:131072:32:1:l -cache:il1 il1:256:32:1:l -cache:il2 dl2 memory_tuned_radixsort245062219
	sim-cache -cache:dl1 dl1:256:32:1:l -cache:dl2 dl2:65536:32:1:l -cache:il1 il1:256:32:1:l -cache:il2 dl2 memory_tuned_radixsort245062219
	sim-cache -cache:dl1 dl1:1:32:256:l -cache:dl2 dl2:1:32:131072:l -cache:il1 il1:1:32:256:l -cache:il2 dl2 memory_tuned_radixsort245062219
	sim-cache -cache:dl1 dl1:1:32:256:l -cache:dl2 dl2:1:32:65536:l -cache:il1 il1:1:32:256:l -cache:il2 dl2 memory_tuned_radixsort245062219
	sim-bpred -bpred bimod -bpred:bimod 512 memory_tuned_radixsort245062219
	sim-bpred -bpred bimod -bpred:bimod 1024 memory_tuned_radixsort245062219
	sim-bpred -bpred bimod -bpred:bimod 2048 memory_tuned_radixsort245062219
	sim-bpred -bpred 2lev -bpred:2lev 1 512 10 1 memory_tuned_radixsort245062219
	sim-bpred -bpred 2lev -bpred:2lev 1 1024 10 1 memory_tuned_radixsort245062219
	sim-bpred -bpred 2lev -bpred:2lev 1 2048 10 1 memory_tuned_radixsort245062219
	sim-bpred -bpred 2lev -bpred:2lev 1 4096 10 1 memory_tuned_radixsort245062219
	sslittle-na-sstrix-gcc -Wall -O3 -funroll-loops -finline-functions  -DRANDOM_SIZE=2097152 -DOFFSET=7 -DSORT=memory_tuned_radixsort sorts/memory_tuned_radixsort1180698949.c simpleMain.c -o memory_tuned_radixsort245062219
	sim-cache -cache:dl1 dl1:256:32:1:l -cache:dl2 dl2:131072:32:1:l -cache:il1 il1:256:32:1:l -cache:il2 dl2 memory_tuned_radixsort245062219
	sim-cache -cache:dl1 dl1:256:32:1:l -cache:dl2 dl2:65536:32:1:l -cache:il1 il1:256:32:1:l -cache:il2 dl2 memory_tuned_radixsort245062219
	sim-cache -cache:dl1 dl1:1:32:256:l -cache:dl2 dl2:1:32:131072:l -cache:il1 il1:1:32:256:l -cache:il2 dl2 memory_tuned_radixsort245062219
	sim-cache -cache:dl1 dl1:1:32:256:l -cache:dl2 dl2:1:32:65536:l -cache:il1 il1:1:32:256:l -cache:il2 dl2 memory_tuned_radixsort245062219
	sim-bpred -bpred bimod -bpred:bimod 512 memory_tuned_radixsort245062219
	sim-bpred -bpred bimod -bpred:bimod 1024 memory_tuned_radixsort245062219
	sim-bpred -bpred bimod -bpred:bimod 2048 memory_tuned_radixsort245062219
	sim-bpred -bpred 2lev -bpred:2lev 1 512 10 1 memory_tuned_radixsort245062219
	sim-bpred -bpred 2lev -bpred:2lev 1 1024 10 1 memory_tuned_radixsort245062219
	sim-bpred -bpred 2lev -bpred:2lev 1 2048 10 1 memory_tuned_radixsort245062219
	sim-bpred -bpred 2lev -bpred:2lev 1 4096 10 1 memory_tuned_radixsort245062219
	sslittle-na-sstrix-gcc -Wall -O3 -funroll-loops -finline-functions  -DRANDOM_SIZE=4194304 -DOFFSET=7 -DSORT=memory_tuned_radixsort sorts/memory_tuned_radixsort1180698949.c simpleMain.c -o memory_tuned_radixsort245062219
	sim-cache -cache:dl1 dl1:256:32:1:l -cache:dl2 dl2:131072:32:1:l -cache:il1 il1:256:32:1:l -cache:il2 dl2 memory_tuned_radixsort245062219
	sim-cache -cache:dl1 dl1:256:32:1:l -cache:dl2 dl2:65536:32:1:l -cache:il1 il1:256:32:1:l -cache:il2 dl2 memory_tuned_radixsort245062219
	sim-cache -cache:dl1 dl1:1:32:256:l -cache:dl2 dl2:1:32:131072:l -cache:il1 il1:1:32:256:l -cache:il2 dl2 memory_tuned_radixsort245062219
	sim-cache -cache:dl1 dl1:1:32:256:l -cache:dl2 dl2:1:32:65536:l -cache:il1 il1:1:32:256:l -cache:il2 dl2 memory_tuned_radixsort245062219
	sim-bpred -bpred bimod -bpred:bimod 512 memory_tuned_radixsort245062219
	sim-bpred -bpred bimod -bpred:bimod 1024 memory_tuned_radixsort245062219
	sim-bpred -bpred bimod -bpred:bimod 2048 memory_tuned_radixsort245062219
	sim-bpred -bpred 2lev -bpred:2lev 1 512 10 1 memory_tuned_radixsort245062219
	sim-bpred -bpred 2lev -bpred:2lev 1 1024 10 1 memory_tuned_radixsort245062219
	sim-bpred -bpred 2lev -bpred:2lev 1 2048 10 1 memory_tuned_radixsort245062219
	sim-bpred -bpred 2lev -bpred:2lev 1 4096 10 1 memory_tuned_radixsort245062219
