Tue Jul 12 14:37:16 2005
Run as: "./do_simple -c random.org5 -o 5 memory_tuned_radixsort"
-------------------------------------------------------------------------------------------------
sim-cache                                     4096 |         4096 |         4096 |         4096 |         8192 |         8192 |         8192 |         8192 |        16384 |        16384 |        16384 |        16384 |        32768 |        32768 |        32768 |        32768 |        65536 |        65536 |        65536 |        65536 |       131072 |       131072 |       131072 |       131072 |       262144 |       262144 |       262144 |       262144 |       524288 |       524288 |       524288 |       524288 |      1048576 |      1048576 |      1048576 |      1048576 |      2097152 |      2097152 |      2097152 |      2097152 |      4194304 |      4194304 |      4194304 |      4194304 |
-cache:dl1 dl1:256:32:1:l -cache:dl2 dl2:131072:32:1:l -cache:il1 il1:256:32:1:l -cache:il2 dl2
-cache:dl1 dl1:256:32:1:l -cache:dl2 dl2:65536:32:1:l -cache:il1 il1:256:32:1:l -cache:il2 dl2
-cache:dl1 dl1:1:32:256:l -cache:dl2 dl2:1:32:131072:l -cache:il1 il1:1:32:256:l -cache:il2 dl2
-cache:dl1 dl1:1:32:256:l -cache:dl2 dl2:1:32:65536:l -cache:il1 il1:1:32:256:l -cache:il2 dl2
-------------------------------------------------------------------------------------------------
sim_num_insn                                378645 |       378645 |       378645 |       378645 |       744355 |       744355 |       744355 |       744355 |      1475493 |      1475493 |      1475493 |      1475493 |      2937766 |      2937766 |      2937766 |      2937766 |      5862310 |      5862310 |      5862310 |      5862310 |     11711399 |     11711399 |     11711399 |     11711399 |     23409575 |     23409575 |     23409575 |     23409575 |     46805927 |     46805927 |     46805927 |     46805927 |     93611107 |     93611107 |     93611107 |     93611107 |    187205739 |    187205739 |    187205739 |    187205739 |    374394995 |    374394995 |    374394995 |    374394995 |
sim_num_refs                                138910 |       138910 |       138910 |       138910 |       270026 |       270026 |       270026 |       270026 |       532170 |       532170 |       532170 |       532170 |      1056458 |      1056458 |      1056458 |      1056458 |      2105034 |      2105034 |      2105034 |      2105034 |      4202186 |      4202186 |      4202186 |      4202186 |      8396490 |      8396490 |      8396490 |      8396490 |     16785098 |     16785098 |     16785098 |     16785098 |     33571576 |     33571576 |     33571576 |     33571576 |     67132152 |     67132152 |     67132152 |     67132152 |    134253304 |    134253304 |    134253304 |    134253304 |
sim_elapsed_time                                 1 |            1 |           10 |            6 |            1 |            1 |           16 |            8 |            1 |            1 |           26 |           13 |            1 |            1 |           47 |           23 |            2 |            1 |           87 |           42 |            4 |            4 |          160 |           72 |            7 |            7 |          272 |           96 |           16 |           15 |          396 |          103 |           31 |           32 |          411 |          143 |           70 |           68 |          419 |          157 |          134 |          125 |          496 |          227 |
sim_inst_rate                          378645.0000 |  378645.0000 |   37864.5000 |   63107.5000 |  744355.0000 |  744355.0000 |   46522.1875 |   93044.3750 | 1475493.0000 | 1475493.0000 |   56749.7308 |  113499.4615 | 2937766.0000 | 2937766.0000 |   62505.6596 |  127728.9565 | 2931155.0000 | 5862310.0000 |   67382.8736 |  139578.8095 | 2927849.7500 | 2927849.7500 |   73196.2437 |  162658.3194 | 3344225.0000 | 3344225.0000 |   86064.6140 |  243849.7396 | 2925370.4375 | 3120395.1333 |  118196.7854 |  454426.4757 | 3019713.1290 | 2925347.0938 |  227764.2506 |  654623.1259 | 2674367.7000 | 2753025.5735 |  446791.7399 | 1192393.2420 | 2793992.5000 | 2995159.9600 |  754828.6190 | 1649317.1586 |
il1.accesses                                378645 |       378645 |       378645 |       378645 |       744355 |       744355 |       744355 |       744355 |      1475493 |      1475493 |      1475493 |      1475493 |      2937766 |      2937766 |      2937766 |      2937766 |      5862310 |      5862310 |      5862310 |      5862310 |     11711399 |     11711399 |     11711399 |     11711399 |     23409575 |     23409575 |     23409575 |     23409575 |     46805927 |     46805927 |     46805927 |     46805927 |     93611107 |     93611107 |     93611107 |     93611107 |    187205739 |    187205739 |    187205739 |    187205739 |    374394995 |    374394995 |    374394995 |    374394995 |
il1.hits                                    378187 |       378187 |       378243 |       378243 |       743876 |       743876 |       743933 |       743933 |      1475030 |      1475030 |      1475107 |      1475107 |      2937286 |      2937286 |      2937342 |      2937342 |      5861830 |      5861830 |      5861886 |      5861886 |     11710919 |     11710919 |     11710975 |     11710975 |     23409095 |     23409095 |     23409151 |     23409151 |     46805447 |     46805447 |     46805503 |     46805503 |     93610581 |     93610581 |     93610648 |     93610648 |    187205213 |    187205213 |    187205280 |    187205280 |    374394469 |    374394469 |    374394536 |    374394536 |
il1.misses                                     458 |          458 |          402 |          402 |          479 |          479 |          422 |          422 |          463 |          463 |          386 |          386 |          480 |          480 |          424 |          424 |          480 |          480 |          424 |          424 |          480 |          480 |          424 |          424 |          480 |          480 |          424 |          424 |          480 |          480 |          424 |          424 |          526 |          526 |          459 |          459 |          526 |          526 |          459 |          459 |          526 |          526 |          459 |          459 |
il1.replacements                               254 |          254 |          146 |          146 |          271 |          271 |          166 |          166 |          258 |          258 |          130 |          130 |          273 |          273 |          168 |          168 |          273 |          273 |          168 |          168 |          273 |          273 |          168 |          168 |          273 |          273 |          168 |          168 |          273 |          273 |          168 |          168 |          309 |          309 |          203 |          203 |          309 |          309 |          203 |          203 |          309 |          309 |          203 |          203 |
il1.writebacks                                   0 |            0 |            0 |            0 |            0 |            0 |            0 |            0 |            0 |            0 |            0 |            0 |            0 |            0 |            0 |            0 |            0 |            0 |            0 |            0 |            0 |            0 |            0 |            0 |            0 |            0 |            0 |            0 |            0 |            0 |            0 |            0 |            0 |            0 |            0 |            0 |            0 |            0 |            0 |            0 |            0 |            0 |            0 |            0 |
il1.invalidations                                0 |            0 |            0 |            0 |            0 |            0 |            0 |            0 |            0 |            0 |            0 |            0 |            0 |            0 |            0 |            0 |            0 |            0 |            0 |            0 |            0 |            0 |            0 |            0 |            0 |            0 |            0 |            0 |            0 |            0 |            0 |            0 |            0 |            0 |            0 |            0 |            0 |            0 |            0 |            0 |            0 |            0 |            0 |            0 |
il1.miss_rate                               0.0012 |       0.0012 |       0.0011 |       0.0011 |       0.0006 |       0.0006 |       0.0006 |       0.0006 |       0.0003 |       0.0003 |       0.0003 |       0.0003 |       0.0002 |       0.0002 |       0.0001 |       0.0001 |       0.0001 |       0.0001 |       0.0001 |       0.0001 |       0.0000 |       0.0000 |       0.0000 |       0.0000 |       0.0000 |       0.0000 |       0.0000 |       0.0000 |       0.0000 |       0.0000 |       0.0000 |       0.0000 |       0.0000 |       0.0000 |       0.0000 |       0.0000 |       0.0000 |       0.0000 |       0.0000 |       0.0000 |       0.0000 |       0.0000 |       0.0000 |       0.0000 |
il1.repl_rate                               0.0007 |       0.0007 |       0.0004 |       0.0004 |       0.0004 |       0.0004 |       0.0002 |       0.0002 |       0.0002 |       0.0002 |       0.0001 |       0.0001 |       0.0001 |       0.0001 |       0.0001 |       0.0001 |       0.0000 |       0.0000 |       0.0000 |       0.0000 |       0.0000 |       0.0000 |       0.0000 |       0.0000 |       0.0000 |       0.0000 |       0.0000 |       0.0000 |       0.0000 |       0.0000 |       0.0000 |       0.0000 |       0.0000 |       0.0000 |       0.0000 |       0.0000 |       0.0000 |       0.0000 |       0.0000 |       0.0000 |       0.0000 |       0.0000 |       0.0000 |       0.0000 |
il1.wb_rate                                 0.0000 |       0.0000 |       0.0000 |       0.0000 |       0.0000 |       0.0000 |       0.0000 |       0.0000 |       0.0000 |       0.0000 |       0.0000 |       0.0000 |       0.0000 |       0.0000 |       0.0000 |       0.0000 |       0.0000 |       0.0000 |       0.0000 |       0.0000 |       0.0000 |       0.0000 |       0.0000 |       0.0000 |       0.0000 |       0.0000 |       0.0000 |       0.0000 |       0.0000 |       0.0000 |       0.0000 |       0.0000 |       0.0000 |       0.0000 |       0.0000 |       0.0000 |       0.0000 |       0.0000 |       0.0000 |       0.0000 |       0.0000 |       0.0000 |       0.0000 |       0.0000 |
il1.inv_rate                                0.0000 |       0.0000 |       0.0000 |       0.0000 |       0.0000 |       0.0000 |       0.0000 |       0.0000 |       0.0000 |       0.0000 |       0.0000 |       0.0000 |       0.0000 |       0.0000 |       0.0000 |       0.0000 |       0.0000 |       0.0000 |       0.0000 |       0.0000 |       0.0000 |       0.0000 |       0.0000 |       0.0000 |       0.0000 |       0.0000 |       0.0000 |       0.0000 |       0.0000 |       0.0000 |       0.0000 |       0.0000 |       0.0000 |       0.0000 |       0.0000 |       0.0000 |       0.0000 |       0.0000 |       0.0000 |       0.0000 |       0.0000 |       0.0000 |       0.0000 |       0.0000 |
dl1.accesses                                155376 |       155376 |       155376 |       155376 |       302876 |       302876 |       302876 |       302876 |       597788 |       597788 |       597788 |       597788 |      1187612 |      1187612 |      1187612 |      1187612 |      2367260 |      2367260 |      2367260 |      2367260 |      4726556 |      4726556 |      4726556 |      4726556 |      9445148 |      9445148 |      9445148 |      9445148 |     18882332 |     18882332 |     18882332 |     18882332 |     37765962 |     37765962 |     37765962 |     37765962 |     75520842 |     75520842 |     75520842 |     75520842 |    151030602 |    151030602 |    151030602 |    151030602 |
dl1.hits                                    138788 |       138788 |       143945 |       143945 |       269533 |       269533 |       280525 |       280525 |       530122 |       530122 |       553935 |       553935 |      1054058 |      1054058 |      1101025 |      1101025 |      2096253 |      2096253 |      2195446 |      2195446 |      4158620 |      4158620 |      4383463 |      4383463 |      8262821 |      8262821 |      8759480 |      8759480 |     16442832 |     16442832 |     17512241 |     17512241 |     33017870 |     33017870 |     35024964 |     35024964 |     66442776 |     66442776 |     70039734 |     70039734 |    133137295 |    133137295 |    140064380 |    140064380 |
dl1.misses                                   16588 |        16588 |        11431 |        11431 |        33343 |        33343 |        22351 |        22351 |        67666 |        67666 |        43853 |        43853 |       133554 |       133554 |        86587 |        86587 |       271007 |       271007 |       171814 |       171814 |       567936 |       567936 |       343093 |       343093 |      1182327 |      1182327 |       685668 |       685668 |      2439500 |      2439500 |      1370091 |      1370091 |      4748092 |      4748092 |      2740998 |      2740998 |      9078066 |      9078066 |      5481108 |      5481108 |     17893307 |     17893307 |     10966222 |     10966222 |
dl1.replacements                             16332 |        16332 |        11175 |        11175 |        33087 |        33087 |        22095 |        22095 |        67410 |        67410 |        43597 |        43597 |       133298 |       133298 |        86331 |        86331 |       270751 |       270751 |       171558 |       171558 |       567680 |       567680 |       342837 |       342837 |      1182071 |      1182071 |       685412 |       685412 |      2439244 |      2439244 |      1369835 |      1369835 |      4747836 |      4747836 |      2740742 |      2740742 |      9077810 |      9077810 |      5480852 |      5480852 |     17893051 |     17893051 |     10965966 |     10965966 |
dl1.writebacks                               13700 |        13700 |         8659 |         8659 |        27740 |        27740 |        17005 |        17005 |        56553 |        56553 |        33380 |        33380 |       111456 |       111456 |        65870 |        65870 |       226887 |       226887 |       130615 |       130615 |       480040 |       480040 |       260933 |       260933 |      1006713 |      1006713 |       521589 |       521589 |      2088486 |      2088486 |      1042171 |      1042171 |      4045895 |      4045895 |      2085010 |      2085010 |      7673706 |      7673706 |      4169761 |      4169761 |     15085679 |     15085679 |      8344154 |      8344154 |
dl1.invalidations                                0 |            0 |            0 |            0 |            0 |            0 |            0 |            0 |            0 |            0 |            0 |            0 |            0 |            0 |            0 |            0 |            0 |            0 |            0 |            0 |            0 |            0 |            0 |            0 |            0 |            0 |            0 |            0 |            0 |            0 |            0 |            0 |            0 |            0 |            0 |            0 |            0 |            0 |            0 |            0 |            0 |            0 |            0 |            0 |
dl1.miss_rate                               0.1068 |       0.1068 |       0.0736 |       0.0736 |       0.1101 |       0.1101 |       0.0738 |       0.0738 |       0.1132 |       0.1132 |       0.0734 |       0.0734 |       0.1125 |       0.1125 |       0.0729 |       0.0729 |       0.1145 |       0.1145 |       0.0726 |       0.0726 |       0.1202 |       0.1202 |       0.0726 |       0.0726 |       0.1252 |       0.1252 |       0.0726 |       0.0726 |       0.1292 |       0.1292 |       0.0726 |       0.0726 |       0.1257 |       0.1257 |       0.0726 |       0.0726 |       0.1202 |       0.1202 |       0.0726 |       0.0726 |       0.1185 |       0.1185 |       0.0726 |       0.0726 |
dl1.repl_rate                               0.1051 |       0.1051 |       0.0719 |       0.0719 |       0.1092 |       0.1092 |       0.0730 |       0.0730 |       0.1128 |       0.1128 |       0.0729 |       0.0729 |       0.1122 |       0.1122 |       0.0727 |       0.0727 |       0.1144 |       0.1144 |       0.0725 |       0.0725 |       0.1201 |       0.1201 |       0.0725 |       0.0725 |       0.1252 |       0.1252 |       0.0726 |       0.0726 |       0.1292 |       0.1292 |       0.0725 |       0.0725 |       0.1257 |       0.1257 |       0.0726 |       0.0726 |       0.1202 |       0.1202 |       0.0726 |       0.0726 |       0.1185 |       0.1185 |       0.0726 |       0.0726 |
dl1.wb_rate                                 0.0882 |       0.0882 |       0.0557 |       0.0557 |       0.0916 |       0.0916 |       0.0561 |       0.0561 |       0.0946 |       0.0946 |       0.0558 |       0.0558 |       0.0938 |       0.0938 |       0.0555 |       0.0555 |       0.0958 |       0.0958 |       0.0552 |       0.0552 |       0.1016 |       0.1016 |       0.0552 |       0.0552 |       0.1066 |       0.1066 |       0.0552 |       0.0552 |       0.1106 |       0.1106 |       0.0552 |       0.0552 |       0.1071 |       0.1071 |       0.0552 |       0.0552 |       0.1016 |       0.1016 |       0.0552 |       0.0552 |       0.0999 |       0.0999 |       0.0552 |       0.0552 |
dl1.inv_rate                                0.0000 |       0.0000 |       0.0000 |       0.0000 |       0.0000 |       0.0000 |       0.0000 |       0.0000 |       0.0000 |       0.0000 |       0.0000 |       0.0000 |       0.0000 |       0.0000 |       0.0000 |       0.0000 |       0.0000 |       0.0000 |       0.0000 |       0.0000 |       0.0000 |       0.0000 |       0.0000 |       0.0000 |       0.0000 |       0.0000 |       0.0000 |       0.0000 |       0.0000 |       0.0000 |       0.0000 |       0.0000 |       0.0000 |       0.0000 |       0.0000 |       0.0000 |       0.0000 |       0.0000 |       0.0000 |       0.0000 |       0.0000 |       0.0000 |       0.0000 |       0.0000 |
dl2.accesses                                 30746 |        30746 |        20492 |        20492 |        61562 |        61562 |        39778 |        39778 |       124682 |       124682 |        77619 |        77619 |       245490 |       245490 |       152881 |       152881 |       498374 |       498374 |       302853 |       302853 |      1048456 |      1048456 |       604450 |       604450 |      2189520 |      2189520 |      1207681 |      1207681 |      4528466 |      4528466 |      2412686 |      2412686 |      8794513 |      8794513 |      4826467 |      4826467 |     16752298 |     16752298 |      9651328 |      9651328 |     32979512 |     32979512 |     19310835 |     19310835 |
dl2.hits                                     28832 |        28832 |        18594 |        18594 |        58621 |        58621 |        36866 |        36866 |       119698 |       119698 |        72663 |        72663 |       236399 |       236399 |       143823 |       143823 |       481089 |       481089 |       285603 |       285603 |      1014787 |      1014787 |       570816 |       570816 |      2123083 |      2111101 |      1141279 |      1138913 |      4384406 |      4066694 |      2277831 |      1815323 |      7893057 |      7495292 |      3632882 |      3539559 |     14163210 |     14060834 |      7079559 |      7038775 |     27622946 |     27416093 |     14087818 |     14068616 |
dl2.misses                                    1914 |         1914 |         1898 |         1898 |         2941 |         2941 |         2912 |         2912 |         4984 |         4984 |         4956 |         4956 |         9091 |         9091 |         9058 |         9058 |        17285 |        17285 |        17250 |        17250 |        33669 |        33669 |        33634 |        33634 |        66437 |        78419 |        66402 |        68768 |       144060 |       461772 |       134855 |       597363 |       901456 |      1299221 |      1193585 |      1286908 |      2589088 |      2691464 |      2571769 |      2612553 |      5356566 |      5563419 |      5223017 |      5242219 |
dl2.replacements                               236 |          236 |            0 |            0 |          250 |          250 |            0 |            0 |          265 |          265 |            0 |            0 |          275 |          275 |            0 |            0 |          277 |          277 |            0 |            0 |          277 |          277 |            0 |            0 |          277 |        13995 |            0 |         3232 |        14100 |       396236 |         3783 |       531827 |       770384 |      1233685 |      1062513 |      1221372 |      2458016 |      2625928 |      2440697 |      2547017 |      5225494 |      5497883 |      5091945 |      5176683 |
dl2.writebacks                                 158 |          158 |            0 |            0 |          156 |          156 |            0 |            0 |          170 |          170 |            0 |            0 |          178 |          178 |            0 |            0 |          178 |          178 |            0 |            0 |          178 |          178 |            0 |            0 |          178 |        10568 |            0 |         3006 |        10606 |       300482 |         3557 |       296265 |       596081 |       668007 |       591911 |       624740 |      1316063 |      1387991 |      1248062 |      1280928 |      2744738 |      2938549 |      2560370 |      2593304 |
dl2.invalidations                                0 |            0 |            0 |            0 |            0 |            0 |            0 |            0 |            0 |            0 |            0 |            0 |            0 |            0 |            0 |            0 |            0 |            0 |            0 |            0 |            0 |            0 |            0 |            0 |            0 |            0 |            0 |            0 |            0 |            0 |            0 |            0 |            0 |            0 |            0 |            0 |            0 |            0 |            0 |            0 |            0 |            0 |            0 |            0 |
dl2.miss_rate                               0.0623 |       0.0623 |       0.0926 |       0.0926 |       0.0478 |       0.0478 |       0.0732 |       0.0732 |       0.0400 |       0.0400 |       0.0639 |       0.0639 |       0.0370 |       0.0370 |       0.0592 |       0.0592 |       0.0347 |       0.0347 |       0.0570 |       0.0570 |       0.0321 |       0.0321 |       0.0556 |       0.0556 |       0.0303 |       0.0358 |       0.0550 |       0.0569 |       0.0318 |       0.1020 |       0.0559 |       0.2476 |       0.1025 |       0.1477 |       0.2473 |       0.2666 |       0.1546 |       0.1607 |       0.2665 |       0.2707 |       0.1624 |       0.1687 |       0.2705 |       0.2715 |
dl2.repl_rate                               0.0077 |       0.0077 |       0.0000 |       0.0000 |       0.0041 |       0.0041 |       0.0000 |       0.0000 |       0.0021 |       0.0021 |       0.0000 |       0.0000 |       0.0011 |       0.0011 |       0.0000 |       0.0000 |       0.0006 |       0.0006 |       0.0000 |       0.0000 |       0.0003 |       0.0003 |       0.0000 |       0.0000 |       0.0001 |       0.0064 |       0.0000 |       0.0027 |       0.0031 |       0.0875 |       0.0016 |       0.2204 |       0.0876 |       0.1403 |       0.2201 |       0.2531 |       0.1467 |       0.1568 |       0.2529 |       0.2639 |       0.1584 |       0.1667 |       0.2637 |       0.2681 |
dl2.wb_rate                                 0.0051 |       0.0051 |       0.0000 |       0.0000 |       0.0025 |       0.0025 |       0.0000 |       0.0000 |       0.0014 |       0.0014 |       0.0000 |       0.0000 |       0.0007 |       0.0007 |       0.0000 |       0.0000 |       0.0004 |       0.0004 |       0.0000 |       0.0000 |       0.0002 |       0.0002 |       0.0000 |       0.0000 |       0.0001 |       0.0048 |       0.0000 |       0.0025 |       0.0023 |       0.0664 |       0.0015 |       0.1228 |       0.0678 |       0.0760 |       0.1226 |       0.1294 |       0.0786 |       0.0829 |       0.1293 |       0.1327 |       0.0832 |       0.0891 |       0.1326 |       0.1343 |
dl2.inv_rate                                0.0000 |       0.0000 |       0.0000 |       0.0000 |       0.0000 |       0.0000 |       0.0000 |       0.0000 |       0.0000 |       0.0000 |       0.0000 |       0.0000 |       0.0000 |       0.0000 |       0.0000 |       0.0000 |       0.0000 |       0.0000 |       0.0000 |       0.0000 |       0.0000 |       0.0000 |       0.0000 |       0.0000 |       0.0000 |       0.0000 |       0.0000 |       0.0000 |       0.0000 |       0.0000 |       0.0000 |       0.0000 |       0.0000 |       0.0000 |       0.0000 |       0.0000 |       0.0000 |       0.0000 |       0.0000 |       0.0000 |       0.0000 |       0.0000 |       0.0000 |       0.0000 |
itlb.accesses                               378645 |       378645 |       378645 |       378645 |       744355 |       744355 |       744355 |       744355 |      1475493 |      1475493 |      1475493 |      1475493 |      2937766 |      2937766 |      2937766 |      2937766 |      5862310 |      5862310 |      5862310 |      5862310 |     11711399 |     11711399 |     11711399 |     11711399 |     23409575 |     23409575 |     23409575 |     23409575 |     46805927 |     46805927 |     46805927 |     46805927 |     93611107 |     93611107 |     93611107 |     93611107 |    187205739 |    187205739 |    187205739 |    187205739 |    374394995 |    374394995 |    374394995 |    374394995 |
itlb.hits                                   378635 |       378635 |       378635 |       378635 |       744345 |       744345 |       744345 |       744345 |      1475483 |      1475483 |      1475483 |      1475483 |      2937756 |      2937756 |      2937756 |      2937756 |      5862300 |      5862300 |      5862300 |      5862300 |     11711389 |     11711389 |     11711389 |     11711389 |     23409565 |     23409565 |     23409565 |     23409565 |     46805917 |     46805917 |     46805917 |     46805917 |     93611097 |     93611097 |     93611097 |     93611097 |    187205729 |    187205729 |    187205729 |    187205729 |    374394985 |    374394985 |    374394985 |    374394985 |
itlb.misses                                     10 |           10 |           10 |           10 |           10 |           10 |           10 |           10 |           10 |           10 |           10 |           10 |           10 |           10 |           10 |           10 |           10 |           10 |           10 |           10 |           10 |           10 |           10 |           10 |           10 |           10 |           10 |           10 |           10 |           10 |           10 |           10 |           10 |           10 |           10 |           10 |           10 |           10 |           10 |           10 |           10 |           10 |           10 |           10 |
itlb.replacements                                0 |            0 |            0 |            0 |            0 |            0 |            0 |            0 |            0 |            0 |            0 |            0 |            0 |            0 |            0 |            0 |            0 |            0 |            0 |            0 |            0 |            0 |            0 |            0 |            0 |            0 |            0 |            0 |            0 |            0 |            0 |            0 |            0 |            0 |            0 |            0 |            0 |            0 |            0 |            0 |            0 |            0 |            0 |            0 |
itlb.writebacks                                  0 |            0 |            0 |            0 |            0 |            0 |            0 |            0 |            0 |            0 |            0 |            0 |            0 |            0 |            0 |            0 |            0 |            0 |            0 |            0 |            0 |            0 |            0 |            0 |            0 |            0 |            0 |            0 |            0 |            0 |            0 |            0 |            0 |            0 |            0 |            0 |            0 |            0 |            0 |            0 |            0 |            0 |            0 |            0 |
itlb.invalidations                               0 |            0 |            0 |            0 |            0 |            0 |            0 |            0 |            0 |            0 |            0 |            0 |            0 |            0 |            0 |            0 |            0 |            0 |            0 |            0 |            0 |            0 |            0 |            0 |            0 |            0 |            0 |            0 |            0 |            0 |            0 |            0 |            0 |            0 |            0 |            0 |            0 |            0 |            0 |            0 |            0 |            0 |            0 |            0 |
itlb.miss_rate                              0.0000 |       0.0000 |       0.0000 |       0.0000 |       0.0000 |       0.0000 |       0.0000 |       0.0000 |       0.0000 |       0.0000 |       0.0000 |       0.0000 |       0.0000 |       0.0000 |       0.0000 |       0.0000 |       0.0000 |       0.0000 |       0.0000 |       0.0000 |       0.0000 |       0.0000 |       0.0000 |       0.0000 |       0.0000 |       0.0000 |       0.0000 |       0.0000 |       0.0000 |       0.0000 |       0.0000 |       0.0000 |       0.0000 |       0.0000 |       0.0000 |       0.0000 |       0.0000 |       0.0000 |       0.0000 |       0.0000 |       0.0000 |       0.0000 |       0.0000 |       0.0000 |
itlb.repl_rate                              0.0000 |       0.0000 |       0.0000 |       0.0000 |       0.0000 |       0.0000 |       0.0000 |       0.0000 |       0.0000 |       0.0000 |       0.0000 |       0.0000 |       0.0000 |       0.0000 |       0.0000 |       0.0000 |       0.0000 |       0.0000 |       0.0000 |       0.0000 |       0.0000 |       0.0000 |       0.0000 |       0.0000 |       0.0000 |       0.0000 |       0.0000 |       0.0000 |       0.0000 |       0.0000 |       0.0000 |       0.0000 |       0.0000 |       0.0000 |       0.0000 |       0.0000 |       0.0000 |       0.0000 |       0.0000 |       0.0000 |       0.0000 |       0.0000 |       0.0000 |       0.0000 |
itlb.wb_rate                                0.0000 |       0.0000 |       0.0000 |       0.0000 |       0.0000 |       0.0000 |       0.0000 |       0.0000 |       0.0000 |       0.0000 |       0.0000 |       0.0000 |       0.0000 |       0.0000 |       0.0000 |       0.0000 |       0.0000 |       0.0000 |       0.0000 |       0.0000 |       0.0000 |       0.0000 |       0.0000 |       0.0000 |       0.0000 |       0.0000 |       0.0000 |       0.0000 |       0.0000 |       0.0000 |       0.0000 |       0.0000 |       0.0000 |       0.0000 |       0.0000 |       0.0000 |       0.0000 |       0.0000 |       0.0000 |       0.0000 |       0.0000 |       0.0000 |       0.0000 |       0.0000 |
itlb.inv_rate                               0.0000 |       0.0000 |       0.0000 |       0.0000 |       0.0000 |       0.0000 |       0.0000 |       0.0000 |       0.0000 |       0.0000 |       0.0000 |       0.0000 |       0.0000 |       0.0000 |       0.0000 |       0.0000 |       0.0000 |       0.0000 |       0.0000 |       0.0000 |       0.0000 |       0.0000 |       0.0000 |       0.0000 |       0.0000 |       0.0000 |       0.0000 |       0.0000 |       0.0000 |       0.0000 |       0.0000 |       0.0000 |       0.0000 |       0.0000 |       0.0000 |       0.0000 |       0.0000 |       0.0000 |       0.0000 |       0.0000 |       0.0000 |       0.0000 |       0.0000 |       0.0000 |
dtlb.accesses                               155376 |       155376 |       155376 |       155376 |       302876 |       302876 |       302876 |       302876 |       597788 |       597788 |       597788 |       597788 |      1187612 |      1187612 |      1187612 |      1187612 |      2367260 |      2367260 |      2367260 |      2367260 |      4726556 |      4726556 |      4726556 |      4726556 |      9445148 |      9445148 |      9445148 |      9445148 |     18882332 |     18882332 |     18882332 |     18882332 |     37765962 |     37765962 |     37765962 |     37765962 |     75520842 |     75520842 |     75520842 |     75520842 |    151030602 |    151030602 |    151030602 |    151030602 |
dtlb.hits                                   155361 |       155361 |       155361 |       155361 |       302853 |       302853 |       302853 |       302853 |       597749 |       597749 |       597749 |       597749 |      1187541 |      1187541 |      1187541 |      1187541 |      2367111 |      2367111 |      2367111 |      2367111 |      4716315 |      4716315 |      4716315 |      4716315 |      8920111 |      8920111 |      8920111 |      8920111 |     17547867 |     17547867 |     17547867 |     17547867 |     34516870 |     34516870 |     34516870 |     34516870 |     68339848 |     68339848 |     68339848 |     68339848 |    135654925 |    135654925 |    135654925 |    135654925 |
dtlb.misses                                     15 |           15 |           15 |           15 |           23 |           23 |           23 |           23 |           39 |           39 |           39 |           39 |           71 |           71 |           71 |           71 |          149 |          149 |          149 |          149 |        10241 |        10241 |        10241 |        10241 |       525037 |       525037 |       525037 |       525037 |      1334465 |      1334465 |      1334465 |      1334465 |      3249092 |      3249092 |      3249092 |      3249092 |      7180994 |      7180994 |      7180994 |      7180994 |     15375677 |     15375677 |     15375677 |     15375677 |
dtlb.replacements                                0 |            0 |            0 |            0 |            0 |            0 |            0 |            0 |            0 |            0 |            0 |            0 |            0 |            0 |            0 |            0 |           21 |           21 |           21 |           21 |        10113 |        10113 |        10113 |        10113 |       524909 |       524909 |       524909 |       524909 |      1334337 |      1334337 |      1334337 |      1334337 |      3248964 |      3248964 |      3248964 |      3248964 |      7180866 |      7180866 |      7180866 |      7180866 |     15375549 |     15375549 |     15375549 |     15375549 |
dtlb.writebacks                                  0 |            0 |            0 |            0 |            0 |            0 |            0 |            0 |            0 |            0 |            0 |            0 |            0 |            0 |            0 |            0 |           15 |           15 |           15 |           15 |         9584 |         9584 |         9584 |         9584 |       523629 |       523629 |       523629 |       523629 |      1331791 |      1331791 |      1331791 |      1331791 |      3243928 |      3243928 |      3243928 |      3243928 |      7170728 |      7170728 |      7170728 |      7170728 |     15355178 |     15355178 |     15355178 |     15355178 |
dtlb.invalidations                               0 |            0 |            0 |            0 |            0 |            0 |            0 |            0 |            0 |            0 |            0 |            0 |            0 |            0 |            0 |            0 |            0 |            0 |            0 |            0 |            0 |            0 |            0 |            0 |            0 |            0 |            0 |            0 |            0 |            0 |            0 |            0 |            0 |            0 |            0 |            0 |            0 |            0 |            0 |            0 |            0 |            0 |            0 |            0 |
dtlb.miss_rate                              0.0001 |       0.0001 |       0.0001 |       0.0001 |       0.0001 |       0.0001 |       0.0001 |       0.0001 |       0.0001 |       0.0001 |       0.0001 |       0.0001 |       0.0001 |       0.0001 |       0.0001 |       0.0001 |       0.0001 |       0.0001 |       0.0001 |       0.0001 |       0.0022 |       0.0022 |       0.0022 |       0.0022 |       0.0556 |       0.0556 |       0.0556 |       0.0556 |       0.0707 |       0.0707 |       0.0707 |       0.0707 |       0.0860 |       0.0860 |       0.0860 |       0.0860 |       0.0951 |       0.0951 |       0.0951 |       0.0951 |       0.1018 |       0.1018 |       0.1018 |       0.1018 |
dtlb.repl_rate                              0.0000 |       0.0000 |       0.0000 |       0.0000 |       0.0000 |       0.0000 |       0.0000 |       0.0000 |       0.0000 |       0.0000 |       0.0000 |       0.0000 |       0.0000 |       0.0000 |       0.0000 |       0.0000 |       0.0000 |       0.0000 |       0.0000 |       0.0000 |       0.0021 |       0.0021 |       0.0021 |       0.0021 |       0.0556 |       0.0556 |       0.0556 |       0.0556 |       0.0707 |       0.0707 |       0.0707 |       0.0707 |       0.0860 |       0.0860 |       0.0860 |       0.0860 |       0.0951 |       0.0951 |       0.0951 |       0.0951 |       0.1018 |       0.1018 |       0.1018 |       0.1018 |
dtlb.wb_rate                                0.0000 |       0.0000 |       0.0000 |       0.0000 |       0.0000 |       0.0000 |       0.0000 |       0.0000 |       0.0000 |       0.0000 |       0.0000 |       0.0000 |       0.0000 |       0.0000 |       0.0000 |       0.0000 |       0.0000 |       0.0000 |       0.0000 |       0.0000 |       0.0020 |       0.0020 |       0.0020 |       0.0020 |       0.0554 |       0.0554 |       0.0554 |       0.0554 |       0.0705 |       0.0705 |       0.0705 |       0.0705 |       0.0859 |       0.0859 |       0.0859 |       0.0859 |       0.0950 |       0.0950 |       0.0950 |       0.0950 |       0.1017 |       0.1017 |       0.1017 |       0.1017 |
dtlb.inv_rate                               0.0000 |       0.0000 |       0.0000 |       0.0000 |       0.0000 |       0.0000 |       0.0000 |       0.0000 |       0.0000 |       0.0000 |       0.0000 |       0.0000 |       0.0000 |       0.0000 |       0.0000 |       0.0000 |       0.0000 |       0.0000 |       0.0000 |       0.0000 |       0.0000 |       0.0000 |       0.0000 |       0.0000 |       0.0000 |       0.0000 |       0.0000 |       0.0000 |       0.0000 |       0.0000 |       0.0000 |       0.0000 |       0.0000 |       0.0000 |       0.0000 |       0.0000 |       0.0000 |       0.0000 |       0.0000 |       0.0000 |       0.0000 |       0.0000 |       0.0000 |       0.0000 |
ld_text_base                            0x00400000 |   0x00400000 |   0x00400000 |   0x00400000 |   0x00400000 |   0x00400000 |   0x00400000 |   0x00400000 |   0x00400000 |   0x00400000 |   0x00400000 |   0x00400000 |   0x00400000 |   0x00400000 |   0x00400000 |   0x00400000 |   0x00400000 |   0x00400000 |   0x00400000 |   0x00400000 |   0x00400000 |   0x00400000 |   0x00400000 |   0x00400000 |   0x00400000 |   0x00400000 |   0x00400000 |   0x00400000 |   0x00400000 |   0x00400000 |   0x00400000 |   0x00400000 |   0x00400000 |   0x00400000 |   0x00400000 |   0x00400000 |   0x00400000 |   0x00400000 |   0x00400000 |   0x00400000 |   0x00400000 |   0x00400000 |   0x00400000 |   0x00400000 |
ld_text_size                                 73856 |        73856 |        73856 |        73856 |        73888 |        73888 |        73888 |        73888 |        73904 |        73904 |        73904 |        73904 |        73920 |        73920 |        73920 |        73920 |        73920 |        73920 |        73920 |        73920 |        73920 |        73920 |        73920 |        73920 |        73920 |        73920 |        73920 |        73920 |        73920 |        73920 |        73920 |        73920 |        73920 |        73920 |        73920 |        73920 |        73920 |        73920 |        73920 |        73920 |        73920 |        73920 |        73920 |        73920 |
ld_data_base                            0x10000000 |   0x10000000 |   0x10000000 |   0x10000000 |   0x10000000 |   0x10000000 |   0x10000000 |   0x10000000 |   0x10000000 |   0x10000000 |   0x10000000 |   0x10000000 |   0x10000000 |   0x10000000 |   0x10000000 |   0x10000000 |   0x10000000 |   0x10000000 |   0x10000000 |   0x10000000 |   0x10000000 |   0x10000000 |   0x10000000 |   0x10000000 |   0x10000000 |   0x10000000 |   0x10000000 |   0x10000000 |   0x10000000 |   0x10000000 |   0x10000000 |   0x10000000 |   0x10000000 |   0x10000000 |   0x10000000 |   0x10000000 |   0x10000000 |   0x10000000 |   0x10000000 |   0x10000000 |   0x10000000 |   0x10000000 |   0x10000000 |   0x10000000 |
ld_data_size                                  8192 |         8192 |         8192 |         8192 |         8192 |         8192 |         8192 |         8192 |         8192 |         8192 |         8192 |         8192 |         8192 |         8192 |         8192 |         8192 |         8192 |         8192 |         8192 |         8192 |         8192 |         8192 |         8192 |         8192 |         8192 |         8192 |         8192 |         8192 |         8192 |         8192 |         8192 |         8192 |         8192 |         8192 |         8192 |         8192 |         8192 |         8192 |         8192 |         8192 |         8192 |         8192 |         8192 |         8192 |
ld_stack_base                           0x7fffc000 |   0x7fffc000 |   0x7fffc000 |   0x7fffc000 |   0x7fffc000 |   0x7fffc000 |   0x7fffc000 |   0x7fffc000 |   0x7fffc000 |   0x7fffc000 |   0x7fffc000 |   0x7fffc000 |   0x7fffc000 |   0x7fffc000 |   0x7fffc000 |   0x7fffc000 |   0x7fffc000 |   0x7fffc000 |   0x7fffc000 |   0x7fffc000 |   0x7fffc000 |   0x7fffc000 |   0x7fffc000 |   0x7fffc000 |   0x7fffc000 |   0x7fffc000 |   0x7fffc000 |   0x7fffc000 |   0x7fffc000 |   0x7fffc000 |   0x7fffc000 |   0x7fffc000 |   0x7fffc000 |   0x7fffc000 |   0x7fffc000 |   0x7fffc000 |   0x7fffc000 |   0x7fffc000 |   0x7fffc000 |   0x7fffc000 |   0x7fffc000 |   0x7fffc000 |   0x7fffc000 |   0x7fffc000 |
ld_stack_size                                16384 |        16384 |        16384 |        16384 |        16384 |        16384 |        16384 |        16384 |        16384 |        16384 |        16384 |        16384 |        16384 |        16384 |        16384 |        16384 |        16384 |        16384 |        16384 |        16384 |        16384 |        16384 |        16384 |        16384 |        16384 |        16384 |        16384 |        16384 |        16384 |        16384 |        16384 |        16384 |        16384 |        16384 |        16384 |        16384 |        16384 |        16384 |        16384 |        16384 |        16384 |        16384 |        16384 |        16384 |
ld_prog_entry                           0x00400140 |   0x00400140 |   0x00400140 |   0x00400140 |   0x00400140 |   0x00400140 |   0x00400140 |   0x00400140 |   0x00400140 |   0x00400140 |   0x00400140 |   0x00400140 |   0x00400140 |   0x00400140 |   0x00400140 |   0x00400140 |   0x00400140 |   0x00400140 |   0x00400140 |   0x00400140 |   0x00400140 |   0x00400140 |   0x00400140 |   0x00400140 |   0x00400140 |   0x00400140 |   0x00400140 |   0x00400140 |   0x00400140 |   0x00400140 |   0x00400140 |   0x00400140 |   0x00400140 |   0x00400140 |   0x00400140 |   0x00400140 |   0x00400140 |   0x00400140 |   0x00400140 |   0x00400140 |   0x00400140 |   0x00400140 |   0x00400140 |   0x00400140 |
ld_environ_base                         0x7fff8000 |   0x7fff8000 |   0x7fff8000 |   0x7fff8000 |   0x7fff8000 |   0x7fff8000 |   0x7fff8000 |   0x7fff8000 |   0x7fff8000 |   0x7fff8000 |   0x7fff8000 |   0x7fff8000 |   0x7fff8000 |   0x7fff8000 |   0x7fff8000 |   0x7fff8000 |   0x7fff8000 |   0x7fff8000 |   0x7fff8000 |   0x7fff8000 |   0x7fff8000 |   0x7fff8000 |   0x7fff8000 |   0x7fff8000 |   0x7fff8000 |   0x7fff8000 |   0x7fff8000 |   0x7fff8000 |   0x7fff8000 |   0x7fff8000 |   0x7fff8000 |   0x7fff8000 |   0x7fff8000 |   0x7fff8000 |   0x7fff8000 |   0x7fff8000 |   0x7fff8000 |   0x7fff8000 |   0x7fff8000 |   0x7fff8000 |   0x7fff8000 |   0x7fff8000 |   0x7fff8000 |   0x7fff8000 |
ld_target_big_endian                             0 |            0 |            0 |            0 |            0 |            0 |            0 |            0 |            0 |            0 |            0 |            0 |            0 |            0 |            0 |            0 |            0 |            0 |            0 |            0 |            0 |            0 |            0 |            0 |            0 |            0 |            0 |            0 |            0 |            0 |            0 |            0 |            0 |            0 |            0 |            0 |            0 |            0 |            0 |            0 |            0 |            0 |            0 |            0 |
mem.page_count                                  34 |           34 |           34 |           34 |           42 |           42 |           42 |           42 |           58 |           58 |           58 |           58 |           90 |           90 |           90 |           90 |          154 |          154 |          154 |          154 |          282 |          282 |          282 |          282 |          538 |          538 |          538 |          538 |         1050 |         1050 |         1050 |         1050 |         2080 |         2080 |         2080 |         2080 |         4134 |         4134 |         4134 |         4134 |         8242 |         8242 |         8242 |         8242 |
mem.page_mem                                  136k |         136k |         136k |         136k |         168k |         168k |         168k |         168k |         232k |         232k |         232k |         232k |         360k |         360k |         360k |         360k |         616k |         616k |         616k |         616k |        1128k |        1128k |        1128k |        1128k |        2152k |        2152k |        2152k |        2152k |        4200k |        4200k |        4200k |        4200k |        8320k |        8320k |        8320k |        8320k |       16536k |       16536k |       16536k |       16536k |       32968k |       32968k |       32968k |       32968k |
mem.ptab_misses                                 34 |           34 |           34 |           34 |           42 |           42 |           42 |           42 |           58 |           58 |           58 |           58 |           90 |           90 |           90 |           90 |          154 |          154 |          154 |          154 |          282 |          282 |          282 |          282 |          538 |          538 |          538 |          538 |         1050 |         1050 |         1050 |         1050 |        18467 |        18467 |        18467 |        18467 |        18477 |        18477 |        18477 |        18477 |        22585 |        22585 |        22585 |        22585 |
mem.ptab_accesses                          2283060 |      2283060 |      2283060 |      2283060 |      4041092 |      4041092 |      4041092 |      4041092 |      7555564 |      7555564 |      7555564 |      7555564 |     14584400 |     14584400 |     14584400 |     14584400 |     28641872 |     28641872 |     28641872 |     28641872 |     56756820 |     56756820 |     56756820 |     56756820 |    112986708 |    112986708 |    112986708 |    112986708 |    225446484 |    225446484 |    225446484 |    225446484 |    450434464 |    450434464 |    450434464 |    450434464 |    900322752 |    900322752 |    900322752 |    900322752 |   1800099296 |   1800099296 |   1800099296 |   1800099296 |
mem.ptab_miss_rate                          0.0000 |       0.0000 |       0.0000 |       0.0000 |       0.0000 |       0.0000 |       0.0000 |       0.0000 |       0.0000 |       0.0000 |       0.0000 |       0.0000 |       0.0000 |       0.0000 |       0.0000 |       0.0000 |       0.0000 |       0.0000 |       0.0000 |       0.0000 |       0.0000 |       0.0000 |       0.0000 |       0.0000 |       0.0000 |       0.0000 |       0.0000 |       0.0000 |       0.0000 |       0.0000 |       0.0000 |       0.0000 |       0.0000 |       0.0000 |       0.0000 |       0.0000 |       0.0000 |       0.0000 |       0.0000 |       0.0000 |       0.0000 |       0.0000 |       0.0000 |       0.0000 |
-------------------------------------------------------------------------------------------------
sim-bpred                                     4096 |         4096 |         4096 |         4096 |         4096 |         4096 |         4096 |         8192 |         8192 |         8192 |         8192 |         8192 |         8192 |         8192 |        16384 |        16384 |        16384 |        16384 |        16384 |        16384 |        16384 |        32768 |        32768 |        32768 |        32768 |        32768 |        32768 |        32768 |        65536 |        65536 |        65536 |        65536 |        65536 |        65536 |        65536 |       131072 |       131072 |       131072 |       131072 |       131072 |       131072 |       131072 |       262144 |       262144 |       262144 |       262144 |       262144 |       262144 |       262144 |       524288 |       524288 |       524288 |       524288 |       524288 |       524288 |       524288 |      1048576 |      1048576 |      1048576 |      1048576 |      1048576 |      1048576 |      1048576 |      2097152 |      2097152 |      2097152 |      2097152 |      2097152 |      2097152 |      2097152 |      4194304 |      4194304 |      4194304 |      4194304 |      4194304 |      4194304 |      4194304 |
-bpred bimod -bpred:bimod 512
-bpred bimod -bpred:bimod 1024
-bpred bimod -bpred:bimod 2048
-bpred 2lev -bpred:2lev 1 512 10 1
-bpred 2lev -bpred:2lev 1 1024 10 1
-bpred 2lev -bpred:2lev 1 2048 10 1
-bpred 2lev -bpred:2lev 1 4096 10 1
-------------------------------------------------------------------------------------------------
sim_num_insn                                378645 |       378645 |       378645 |       378645 |       378645 |       378645 |       378645 |       744355 |       744355 |       744355 |       744355 |       744355 |       744355 |       744355 |      1475493 |      1475493 |      1475493 |      1475493 |      1475493 |      1475493 |      1475493 |      2937766 |      2937766 |      2937766 |      2937766 |      2937766 |      2937766 |      2937766 |      5862310 |      5862310 |      5862310 |      5862310 |      5862310 |      5862310 |      5862310 |     11711399 |     11711399 |     11711399 |     11711399 |     11711399 |     11711399 |     11711399 |     23409575 |     23409575 |     23409575 |     23409575 |     23409575 |     23409575 |     23409575 |     46805927 |     46805927 |     46805927 |     46805927 |     46805927 |     46805927 |     46805927 |     93611107 |     93611107 |     93611107 |     93611107 |     93611107 |     93611107 |     93611107 |    187205739 |    187205739 |    187205739 |    187205739 |    187205739 |    187205739 |    187205739 |    374394995 |    374394995 |    374394995 |    374394995 |    374394995 |    374394995 |    374394995 |
sim_num_refs                                138910 |       138910 |       138910 |       138910 |       138910 |       138910 |       138910 |       270026 |       270026 |       270026 |       270026 |       270026 |       270026 |       270026 |       532170 |       532170 |       532170 |       532170 |       532170 |       532170 |       532170 |      1056458 |      1056458 |      1056458 |      1056458 |      1056458 |      1056458 |      1056458 |      2105034 |      2105034 |      2105034 |      2105034 |      2105034 |      2105034 |      2105034 |      4202186 |      4202186 |      4202186 |      4202186 |      4202186 |      4202186 |      4202186 |      8396490 |      8396490 |      8396490 |      8396490 |      8396490 |      8396490 |      8396490 |     16785098 |     16785098 |     16785098 |     16785098 |     16785098 |     16785098 |     16785098 |     33571576 |     33571576 |     33571576 |     33571576 |     33571576 |     33571576 |     33571576 |     67132152 |     67132152 |     67132152 |     67132152 |     67132152 |     67132152 |     67132152 |    134253304 |    134253304 |    134253304 |    134253304 |    134253304 |    134253304 |    134253304 |
sim_elapsed_time                                 1 |            1 |            1 |            1 |            1 |            1 |            1 |            1 |            1 |            1 |            1 |            1 |            1 |            1 |            1 |            1 |            1 |            1 |            1 |            1 |            1 |            1 |            1 |            1 |            1 |            1 |            1 |            1 |            1 |            1 |            1 |            1 |            1 |            1 |            1 |            1 |            1 |            2 |            1 |            1 |            1 |            1 |            2 |            2 |            3 |            2 |            2 |            3 |            2 |            5 |            5 |            4 |            5 |            5 |            5 |            4 |           10 |           12 |           11 |           12 |           10 |           11 |           11 |           19 |           18 |           19 |           19 |           19 |           18 |           20 |           38 |           38 |           38 |           38 |           38 |           39 |           39 |
sim_inst_rate                          378645.0000 |  378645.0000 |  378645.0000 |  378645.0000 |  378645.0000 |  378645.0000 |  378645.0000 |  744355.0000 |  744355.0000 |  744355.0000 |  744355.0000 |  744355.0000 |  744355.0000 |  744355.0000 | 1475493.0000 | 1475493.0000 | 1475493.0000 | 1475493.0000 | 1475493.0000 | 1475493.0000 | 1475493.0000 | 2937766.0000 | 2937766.0000 | 2937766.0000 | 2937766.0000 | 2937766.0000 | 2937766.0000 | 2937766.0000 | 5862310.0000 | 5862310.0000 | 5862310.0000 | 5862310.0000 | 5862310.0000 | 5862310.0000 | 5862310.0000 |11711399.0000 |11711399.0000 | 5855699.5000 |11711399.0000 |11711399.0000 |11711399.0000 |11711399.0000 |11704787.5000 |11704787.5000 | 7803191.6667 |11704787.5000 |11704787.5000 | 7803191.6667 |11704787.5000 | 9361185.4000 | 9361185.4000 |11701481.7500 | 9361185.4000 | 9361185.4000 | 9361185.4000 |11701481.7500 | 9361110.7000 | 7800925.5833 | 8510100.6364 | 7800925.5833 | 9361110.7000 | 8510100.6364 | 8510100.6364 | 9852933.6316 |10400318.8333 | 9852933.6316 | 9852933.6316 | 9852933.6316 |10400318.8333 | 9360286.9500 | 9852499.8684 | 9852499.8684 | 9852499.8684 | 9852499.8684 | 9852499.8684 | 9599871.6667 | 9599871.6667 |
sim_num_branches                              9241 |         9241 |         9241 |         9241 |         9241 |         9241 |         9241 |        17473 |        17473 |        17473 |        17473 |        17473 |        17473 |        17473 |        33857 |        33857 |        33857 |        33857 |        33857 |        33857 |        33857 |        66625 |        66625 |        66625 |        66625 |        66625 |        66625 |        66625 |       132161 |       132161 |       132161 |       132161 |       132161 |       132161 |       132161 |       263233 |       263233 |       263233 |       263233 |       263233 |       263233 |       263233 |       525377 |       525377 |       525377 |       525377 |       525377 |       525377 |       525377 |      1049665 |      1049665 |      1049665 |      1049665 |      1049665 |      1049665 |      1049665 |      2099034 |      2099034 |      2099034 |      2099034 |      2099034 |      2099034 |      2099034 |      4196957 |      4196957 |      4196957 |      4196957 |      4196957 |      4196957 |      4196957 |      8392800 |      8392800 |      8392800 |      8392800 |      8392800 |      8392800 |      8392800 |
sim_IPB                                    40.9745 |      40.9745 |      40.9745 |      40.9745 |      40.9745 |      40.9745 |      40.9745 |      42.6003 |      42.6003 |      42.6003 |      42.6003 |      42.6003 |      42.6003 |      42.6003 |      43.5801 |      43.5801 |      43.5801 |      43.5801 |      43.5801 |      43.5801 |      43.5801 |      44.0940 |      44.0940 |      44.0940 |      44.0940 |      44.0940 |      44.0940 |      44.0940 |      44.3573 |      44.3573 |      44.3573 |      44.3573 |      44.3573 |      44.3573 |      44.3573 |      44.4906 |      44.4906 |      44.4906 |      44.4906 |      44.4906 |      44.4906 |      44.4906 |      44.5577 |      44.5577 |      44.5577 |      44.5577 |      44.5577 |      44.5577 |      44.5577 |      44.5913 |      44.5913 |      44.5913 |      44.5913 |      44.5913 |      44.5913 |      44.5913 |      44.5972 |      44.5972 |      44.5972 |      44.5972 |      44.5972 |      44.5972 |      44.5972 |      44.6051 |      44.6051 |      44.6051 |      44.6051 |      44.6051 |      44.6051 |      44.6051 |      44.6091 |      44.6091 |      44.6091 |      44.6091 |      44.6091 |      44.6091 |      44.6091 |
bpred_bimod.lookups                           9241 |         9241 |         9241 |xxxxxxxxxxxxx |xxxxxxxxxxxxx |xxxxxxxxxxxxx |xxxxxxxxxxxxx |        17473 |        17473 |        17473 |xxxxxxxxxxxxx |xxxxxxxxxxxxx |xxxxxxxxxxxxx |xxxxxxxxxxxxx |        33857 |        33857 |        33857 |xxxxxxxxxxxxx |xxxxxxxxxxxxx |xxxxxxxxxxxxx |xxxxxxxxxxxxx |        66625 |        66625 |        66625 |xxxxxxxxxxxxx |xxxxxxxxxxxxx |xxxxxxxxxxxxx |xxxxxxxxxxxxx |       132161 |       132161 |       132161 |xxxxxxxxxxxxx |xxxxxxxxxxxxx |xxxxxxxxxxxxx |xxxxxxxxxxxxx |       263233 |       263233 |       263233 |xxxxxxxxxxxxx |xxxxxxxxxxxxx |xxxxxxxxxxxxx |xxxxxxxxxxxxx |       525377 |       525377 |       525377 |xxxxxxxxxxxxx |xxxxxxxxxxxxx |xxxxxxxxxxxxx |xxxxxxxxxxxxx |      1049665 |      1049665 |      1049665 |xxxxxxxxxxxxx |xxxxxxxxxxxxx |xxxxxxxxxxxxx |xxxxxxxxxxxxx |      2099034 |      2099034 |      2099034 |xxxxxxxxxxxxx |xxxxxxxxxxxxx |xxxxxxxxxxxxx |xxxxxxxxxxxxx |      4196957 |      4196957 |      4196957 |xxxxxxxxxxxxx |xxxxxxxxxxxxx |xxxxxxxxxxxxx |xxxxxxxxxxxxx |      8392800 |      8392800 |      8392800 |
bpred_bimod.updates                           9241 |         9241 |         9241 |xxxxxxxxxxxxx |xxxxxxxxxxxxx |xxxxxxxxxxxxx |xxxxxxxxxxxxx |        17473 |        17473 |        17473 |xxxxxxxxxxxxx |xxxxxxxxxxxxx |xxxxxxxxxxxxx |xxxxxxxxxxxxx |        33857 |        33857 |        33857 |xxxxxxxxxxxxx |xxxxxxxxxxxxx |xxxxxxxxxxxxx |xxxxxxxxxxxxx |        66625 |        66625 |        66625 |xxxxxxxxxxxxx |xxxxxxxxxxxxx |xxxxxxxxxxxxx |xxxxxxxxxxxxx |       132161 |       132161 |       132161 |xxxxxxxxxxxxx |xxxxxxxxxxxxx |xxxxxxxxxxxxx |xxxxxxxxxxxxx |       263233 |       263233 |       263233 |xxxxxxxxxxxxx |xxxxxxxxxxxxx |xxxxxxxxxxxxx |xxxxxxxxxxxxx |       525377 |       525377 |       525377 |xxxxxxxxxxxxx |xxxxxxxxxxxxx |xxxxxxxxxxxxx |xxxxxxxxxxxxx |      1049665 |      1049665 |      1049665 |xxxxxxxxxxxxx |xxxxxxxxxxxxx |xxxxxxxxxxxxx |xxxxxxxxxxxxx |      2099034 |      2099034 |      2099034 |xxxxxxxxxxxxx |xxxxxxxxxxxxx |xxxxxxxxxxxxx |xxxxxxxxxxxxx |      4196957 |      4196957 |      4196957 |xxxxxxxxxxxxx |xxxxxxxxxxxxx |xxxxxxxxxxxxx |xxxxxxxxxxxxx |      8392800 |      8392800 |      8392800 |
bpred_bimod.addr_hits                         9039 |         9041 |         9041 |xxxxxxxxxxxxx |xxxxxxxxxxxxx |xxxxxxxxxxxxx |xxxxxxxxxxxxx |        17264 |        17266 |        17266 |xxxxxxxxxxxxx |xxxxxxxxxxxxx |xxxxxxxxxxxxx |xxxxxxxxxxxxx |        33649 |        33651 |        33651 |xxxxxxxxxxxxx |xxxxxxxxxxxxx |xxxxxxxxxxxxx |xxxxxxxxxxxxx |        66417 |        66419 |        66419 |xxxxxxxxxxxxx |xxxxxxxxxxxxx |xxxxxxxxxxxxx |xxxxxxxxxxxxx |       131953 |       131955 |       131955 |xxxxxxxxxxxxx |xxxxxxxxxxxxx |xxxxxxxxxxxxx |xxxxxxxxxxxxx |       263025 |       263027 |       263027 |xxxxxxxxxxxxx |xxxxxxxxxxxxx |xxxxxxxxxxxxx |xxxxxxxxxxxxx |       525169 |       525171 |       525171 |xxxxxxxxxxxxx |xxxxxxxxxxxxx |xxxxxxxxxxxxx |xxxxxxxxxxxxx |      1049457 |      1049459 |      1049459 |xxxxxxxxxxxxx |xxxxxxxxxxxxx |xxxxxxxxxxxxx |xxxxxxxxxxxxx |      2098803 |      2098804 |      2098803 |xxxxxxxxxxxxx |xxxxxxxxxxxxx |xxxxxxxxxxxxx |xxxxxxxxxxxxx |      4196726 |      4196727 |      4196726 |xxxxxxxxxxxxx |xxxxxxxxxxxxx |xxxxxxxxxxxxx |xxxxxxxxxxxxx |      8392569 |      8392570 |      8392569 |
bpred_bimod.dir_hits                          9138 |         9142 |         9142 |xxxxxxxxxxxxx |xxxxxxxxxxxxx |xxxxxxxxxxxxx |xxxxxxxxxxxxx |        17367 |        17371 |        17371 |xxxxxxxxxxxxx |xxxxxxxxxxxxx |xxxxxxxxxxxxx |xxxxxxxxxxxxx |        33753 |        33756 |        33756 |xxxxxxxxxxxxx |xxxxxxxxxxxxx |xxxxxxxxxxxxx |xxxxxxxxxxxxx |        66520 |        66523 |        66523 |xxxxxxxxxxxxx |xxxxxxxxxxxxx |xxxxxxxxxxxxx |xxxxxxxxxxxxx |       132056 |       132059 |       132059 |xxxxxxxxxxxxx |xxxxxxxxxxxxx |xxxxxxxxxxxxx |xxxxxxxxxxxxx |       263129 |       263132 |       263132 |xxxxxxxxxxxxx |xxxxxxxxxxxxx |xxxxxxxxxxxxx |xxxxxxxxxxxxx |       525273 |       525276 |       525276 |xxxxxxxxxxxxx |xxxxxxxxxxxxx |xxxxxxxxxxxxx |xxxxxxxxxxxxx |      1049561 |      1049564 |      1049564 |xxxxxxxxxxxxx |xxxxxxxxxxxxx |xxxxxxxxxxxxx |xxxxxxxxxxxxx |      2098918 |      2098919 |      2098919 |xxxxxxxxxxxxx |xxxxxxxxxxxxx |xxxxxxxxxxxxx |xxxxxxxxxxxxx |      4196841 |      4196842 |      4196842 |xxxxxxxxxxxxx |xxxxxxxxxxxxx |xxxxxxxxxxxxx |xxxxxxxxxxxxx |      8392684 |      8392685 |      8392685 |
bpred_bimod.misses                             103 |           99 |           99 |xxxxxxxxxxxxx |xxxxxxxxxxxxx |xxxxxxxxxxxxx |xxxxxxxxxxxxx |          106 |          102 |          102 |xxxxxxxxxxxxx |xxxxxxxxxxxxx |xxxxxxxxxxxxx |xxxxxxxxxxxxx |          104 |          101 |          101 |xxxxxxxxxxxxx |xxxxxxxxxxxxx |xxxxxxxxxxxxx |xxxxxxxxxxxxx |          105 |          102 |          102 |xxxxxxxxxxxxx |xxxxxxxxxxxxx |xxxxxxxxxxxxx |xxxxxxxxxxxxx |          105 |          102 |          102 |xxxxxxxxxxxxx |xxxxxxxxxxxxx |xxxxxxxxxxxxx |xxxxxxxxxxxxx |          104 |          101 |          101 |xxxxxxxxxxxxx |xxxxxxxxxxxxx |xxxxxxxxxxxxx |xxxxxxxxxxxxx |          104 |          101 |          101 |xxxxxxxxxxxxx |xxxxxxxxxxxxx |xxxxxxxxxxxxx |xxxxxxxxxxxxx |          104 |          101 |          101 |xxxxxxxxxxxxx |xxxxxxxxxxxxx |xxxxxxxxxxxxx |xxxxxxxxxxxxx |          116 |          115 |          115 |xxxxxxxxxxxxx |xxxxxxxxxxxxx |xxxxxxxxxxxxx |xxxxxxxxxxxxx |          116 |          115 |          115 |xxxxxxxxxxxxx |xxxxxxxxxxxxx |xxxxxxxxxxxxx |xxxxxxxxxxxxx |          116 |          115 |          115 |
bpred_bimod.jr_hits                             61 |           61 |           61 |xxxxxxxxxxxxx |xxxxxxxxxxxxx |xxxxxxxxxxxxx |xxxxxxxxxxxxx |           69 |           69 |           69 |xxxxxxxxxxxxx |xxxxxxxxxxxxx |xxxxxxxxxxxxx |xxxxxxxxxxxxx |           69 |           69 |           69 |xxxxxxxxxxxxx |xxxxxxxxxxxxx |xxxxxxxxxxxxx |xxxxxxxxxxxxx |           69 |           69 |           69 |xxxxxxxxxxxxx |xxxxxxxxxxxxx |xxxxxxxxxxxxx |xxxxxxxxxxxxx |           69 |           69 |           69 |xxxxxxxxxxxxx |xxxxxxxxxxxxx |xxxxxxxxxxxxx |xxxxxxxxxxxxx |           69 |           69 |           69 |xxxxxxxxxxxxx |xxxxxxxxxxxxx |xxxxxxxxxxxxx |xxxxxxxxxxxxx |           69 |           69 |           69 |xxxxxxxxxxxxx |xxxxxxxxxxxxx |xxxxxxxxxxxxx |xxxxxxxxxxxxx |           69 |           69 |           69 |xxxxxxxxxxxxx |xxxxxxxxxxxxx |xxxxxxxxxxxxx |xxxxxxxxxxxxx |           72 |           72 |           72 |xxxxxxxxxxxxx |xxxxxxxxxxxxx |xxxxxxxxxxxxx |xxxxxxxxxxxxx |           72 |           72 |           72 |xxxxxxxxxxxxx |xxxxxxxxxxxxx |xxxxxxxxxxxxx |xxxxxxxxxxxxx |           72 |           72 |           72 |
bpred_bimod.jr_seen                             61 |           61 |           61 |xxxxxxxxxxxxx |xxxxxxxxxxxxx |xxxxxxxxxxxxx |xxxxxxxxxxxxx |           70 |           70 |           70 |xxxxxxxxxxxxx |xxxxxxxxxxxxx |xxxxxxxxxxxxx |xxxxxxxxxxxxx |           70 |           70 |           70 |xxxxxxxxxxxxx |xxxxxxxxxxxxx |xxxxxxxxxxxxx |xxxxxxxxxxxxx |           70 |           70 |           70 |xxxxxxxxxxxxx |xxxxxxxxxxxxx |xxxxxxxxxxxxx |xxxxxxxxxxxxx |           70 |           70 |           70 |xxxxxxxxxxxxx |xxxxxxxxxxxxx |xxxxxxxxxxxxx |xxxxxxxxxxxxx |           70 |           70 |           70 |xxxxxxxxxxxxx |xxxxxxxxxxxxx |xxxxxxxxxxxxx |xxxxxxxxxxxxx |           70 |           70 |           70 |xxxxxxxxxxxxx |xxxxxxxxxxxxx |xxxxxxxxxxxxx |xxxxxxxxxxxxx |           70 |           70 |           70 |xxxxxxxxxxxxx |xxxxxxxxxxxxx |xxxxxxxxxxxxx |xxxxxxxxxxxxx |           73 |           73 |           73 |xxxxxxxxxxxxx |xxxxxxxxxxxxx |xxxxxxxxxxxxx |xxxxxxxxxxxxx |           73 |           73 |           73 |xxxxxxxxxxxxx |xxxxxxxxxxxxx |xxxxxxxxxxxxx |xxxxxxxxxxxxx |           73 |           73 |           73 |
bpred_bimod.jr_non_ras_hits.PP                   0 |            0 |            0 |xxxxxxxxxxxxx |xxxxxxxxxxxxx |xxxxxxxxxxxxx |xxxxxxxxxxxxx |            0 |            0 |            0 |xxxxxxxxxxxxx |xxxxxxxxxxxxx |xxxxxxxxxxxxx |xxxxxxxxxxxxx |            0 |            0 |            0 |xxxxxxxxxxxxx |xxxxxxxxxxxxx |xxxxxxxxxxxxx |xxxxxxxxxxxxx |            0 |            0 |            0 |xxxxxxxxxxxxx |xxxxxxxxxxxxx |xxxxxxxxxxxxx |xxxxxxxxxxxxx |            0 |            0 |            0 |xxxxxxxxxxxxx |xxxxxxxxxxxxx |xxxxxxxxxxxxx |xxxxxxxxxxxxx |            0 |            0 |            0 |xxxxxxxxxxxxx |xxxxxxxxxxxxx |xxxxxxxxxxxxx |xxxxxxxxxxxxx |            0 |            0 |            0 |xxxxxxxxxxxxx |xxxxxxxxxxxxx |xxxxxxxxxxxxx |xxxxxxxxxxxxx |            0 |            0 |            0 |xxxxxxxxxxxxx |xxxxxxxxxxxxx |xxxxxxxxxxxxx |xxxxxxxxxxxxx |            0 |            0 |            0 |xxxxxxxxxxxxx |xxxxxxxxxxxxx |xxxxxxxxxxxxx |xxxxxxxxxxxxx |            0 |            0 |            0 |xxxxxxxxxxxxx |xxxxxxxxxxxxx |xxxxxxxxxxxxx |xxxxxxxxxxxxx |            0 |            0 |            0 |
bpred_bimod.jr_non_ras_seen.PP                   0 |            0 |            0 |xxxxxxxxxxxxx |xxxxxxxxxxxxx |xxxxxxxxxxxxx |xxxxxxxxxxxxx |            0 |            0 |            0 |xxxxxxxxxxxxx |xxxxxxxxxxxxx |xxxxxxxxxxxxx |xxxxxxxxxxxxx |            0 |            0 |            0 |xxxxxxxxxxxxx |xxxxxxxxxxxxx |xxxxxxxxxxxxx |xxxxxxxxxxxxx |            0 |            0 |            0 |xxxxxxxxxxxxx |xxxxxxxxxxxxx |xxxxxxxxxxxxx |xxxxxxxxxxxxx |            0 |            0 |            0 |xxxxxxxxxxxxx |xxxxxxxxxxxxx |xxxxxxxxxxxxx |xxxxxxxxxxxxx |            0 |            0 |            0 |xxxxxxxxxxxxx |xxxxxxxxxxxxx |xxxxxxxxxxxxx |xxxxxxxxxxxxx |            0 |            0 |            0 |xxxxxxxxxxxxx |xxxxxxxxxxxxx |xxxxxxxxxxxxx |xxxxxxxxxxxxx |            0 |            0 |            0 |xxxxxxxxxxxxx |xxxxxxxxxxxxx |xxxxxxxxxxxxx |xxxxxxxxxxxxx |            1 |            1 |            1 |xxxxxxxxxxxxx |xxxxxxxxxxxxx |xxxxxxxxxxxxx |xxxxxxxxxxxxx |            1 |            1 |            1 |xxxxxxxxxxxxx |xxxxxxxxxxxxx |xxxxxxxxxxxxx |xxxxxxxxxxxxx |            1 |            1 |            1 |
bpred_bimod.bpred_addr_rate                 0.9781 |       0.9784 |       0.9784 |xxxxxxxxxxxxx |xxxxxxxxxxxxx |xxxxxxxxxxxxx |xxxxxxxxxxxxx |       0.9880 |       0.9882 |       0.9882 |xxxxxxxxxxxxx |xxxxxxxxxxxxx |xxxxxxxxxxxxx |xxxxxxxxxxxxx |       0.9939 |       0.9939 |       0.9939 |xxxxxxxxxxxxx |xxxxxxxxxxxxx |xxxxxxxxxxxxx |xxxxxxxxxxxxx |       0.9969 |       0.9969 |       0.9969 |xxxxxxxxxxxxx |xxxxxxxxxxxxx |xxxxxxxxxxxxx |xxxxxxxxxxxxx |       0.9984 |       0.9984 |       0.9984 |xxxxxxxxxxxxx |xxxxxxxxxxxxx |xxxxxxxxxxxxx |xxxxxxxxxxxxx |       0.9992 |       0.9992 |       0.9992 |xxxxxxxxxxxxx |xxxxxxxxxxxxx |xxxxxxxxxxxxx |xxxxxxxxxxxxx |       0.9996 |       0.9996 |       0.9996 |xxxxxxxxxxxxx |xxxxxxxxxxxxx |xxxxxxxxxxxxx |xxxxxxxxxxxxx |       0.9998 |       0.9998 |       0.9998 |xxxxxxxxxxxxx |xxxxxxxxxxxxx |xxxxxxxxxxxxx |xxxxxxxxxxxxx |       0.9999 |       0.9999 |       0.9999 |xxxxxxxxxxxxx |xxxxxxxxxxxxx |xxxxxxxxxxxxx |xxxxxxxxxxxxx |       0.9999 |       0.9999 |       0.9999 |xxxxxxxxxxxxx |xxxxxxxxxxxxx |xxxxxxxxxxxxx |xxxxxxxxxxxxx |       1.0000 |       1.0000 |       1.0000 |
bpred_bimod.bpred_dir_rate                  0.9889 |       0.9893 |       0.9893 |xxxxxxxxxxxxx |xxxxxxxxxxxxx |xxxxxxxxxxxxx |xxxxxxxxxxxxx |       0.9939 |       0.9942 |       0.9942 |xxxxxxxxxxxxx |xxxxxxxxxxxxx |xxxxxxxxxxxxx |xxxxxxxxxxxxx |       0.9969 |       0.9970 |       0.9970 |xxxxxxxxxxxxx |xxxxxxxxxxxxx |xxxxxxxxxxxxx |xxxxxxxxxxxxx |       0.9984 |       0.9985 |       0.9985 |xxxxxxxxxxxxx |xxxxxxxxxxxxx |xxxxxxxxxxxxx |xxxxxxxxxxxxx |       0.9992 |       0.9992 |       0.9992 |xxxxxxxxxxxxx |xxxxxxxxxxxxx |xxxxxxxxxxxxx |xxxxxxxxxxxxx |       0.9996 |       0.9996 |       0.9996 |xxxxxxxxxxxxx |xxxxxxxxxxxxx |xxxxxxxxxxxxx |xxxxxxxxxxxxx |       0.9998 |       0.9998 |       0.9998 |xxxxxxxxxxxxx |xxxxxxxxxxxxx |xxxxxxxxxxxxx |xxxxxxxxxxxxx |       0.9999 |       0.9999 |       0.9999 |xxxxxxxxxxxxx |xxxxxxxxxxxxx |xxxxxxxxxxxxx |xxxxxxxxxxxxx |       0.9999 |       0.9999 |       0.9999 |xxxxxxxxxxxxx |xxxxxxxxxxxxx |xxxxxxxxxxxxx |xxxxxxxxxxxxx |       1.0000 |       1.0000 |       1.0000 |xxxxxxxxxxxxx |xxxxxxxxxxxxx |xxxxxxxxxxxxx |xxxxxxxxxxxxx |       1.0000 |       1.0000 |       1.0000 |
bpred_bimod.bpred_jr_rate                   1.0000 |       1.0000 |       1.0000 |xxxxxxxxxxxxx |xxxxxxxxxxxxx |xxxxxxxxxxxxx |xxxxxxxxxxxxx |       0.9857 |       0.9857 |       0.9857 |xxxxxxxxxxxxx |xxxxxxxxxxxxx |xxxxxxxxxxxxx |xxxxxxxxxxxxx |       0.9857 |       0.9857 |       0.9857 |xxxxxxxxxxxxx |xxxxxxxxxxxxx |xxxxxxxxxxxxx |xxxxxxxxxxxxx |       0.9857 |       0.9857 |       0.9857 |xxxxxxxxxxxxx |xxxxxxxxxxxxx |xxxxxxxxxxxxx |xxxxxxxxxxxxx |       0.9857 |       0.9857 |       0.9857 |xxxxxxxxxxxxx |xxxxxxxxxxxxx |xxxxxxxxxxxxx |xxxxxxxxxxxxx |       0.9857 |       0.9857 |       0.9857 |xxxxxxxxxxxxx |xxxxxxxxxxxxx |xxxxxxxxxxxxx |xxxxxxxxxxxxx |       0.9857 |       0.9857 |       0.9857 |xxxxxxxxxxxxx |xxxxxxxxxxxxx |xxxxxxxxxxxxx |xxxxxxxxxxxxx |       0.9857 |       0.9857 |       0.9857 |xxxxxxxxxxxxx |xxxxxxxxxxxxx |xxxxxxxxxxxxx |xxxxxxxxxxxxx |       0.9863 |       0.9863 |       0.9863 |xxxxxxxxxxxxx |xxxxxxxxxxxxx |xxxxxxxxxxxxx |xxxxxxxxxxxxx |       0.9863 |       0.9863 |       0.9863 |xxxxxxxxxxxxx |xxxxxxxxxxxxx |xxxxxxxxxxxxx |xxxxxxxxxxxxx |       0.9863 |       0.9863 |       0.9863 |
bpred_bimod.bpred_jr_non_ras_rate.PP       <error: |      <error: |      <error: |xxxxxxxxxxxxx |xxxxxxxxxxxxx |xxxxxxxxxxxxx |xxxxxxxxxxxxx |      <error: |      <error: |      <error: |xxxxxxxxxxxxx |xxxxxxxxxxxxx |xxxxxxxxxxxxx |xxxxxxxxxxxxx |      <error: |      <error: |      <error: |xxxxxxxxxxxxx |xxxxxxxxxxxxx |xxxxxxxxxxxxx |xxxxxxxxxxxxx |      <error: |      <error: |      <error: |xxxxxxxxxxxxx |xxxxxxxxxxxxx |xxxxxxxxxxxxx |xxxxxxxxxxxxx |      <error: |      <error: |      <error: |xxxxxxxxxxxxx |xxxxxxxxxxxxx |xxxxxxxxxxxxx |xxxxxxxxxxxxx |      <error: |      <error: |      <error: |xxxxxxxxxxxxx |xxxxxxxxxxxxx |xxxxxxxxxxxxx |xxxxxxxxxxxxx |      <error: |      <error: |      <error: |xxxxxxxxxxxxx |xxxxxxxxxxxxx |xxxxxxxxxxxxx |xxxxxxxxxxxxx |      <error: |      <error: |      <error: |xxxxxxxxxxxxx |xxxxxxxxxxxxx |xxxxxxxxxxxxx |xxxxxxxxxxxxx |       0.0000 |       0.0000 |       0.0000 |xxxxxxxxxxxxx |xxxxxxxxxxxxx |xxxxxxxxxxxxx |xxxxxxxxxxxxx |       0.0000 |       0.0000 |       0.0000 |xxxxxxxxxxxxx |xxxxxxxxxxxxx |xxxxxxxxxxxxx |xxxxxxxxxxxxx |       0.0000 |       0.0000 |       0.0000 |
bpred_bimod.retstack_pushes                     63 |           63 |           63 |xxxxxxxxxxxxx |xxxxxxxxxxxxx |xxxxxxxxxxxxx |xxxxxxxxxxxxx |           72 |           72 |           72 |xxxxxxxxxxxxx |xxxxxxxxxxxxx |xxxxxxxxxxxxx |xxxxxxxxxxxxx |           72 |           72 |           72 |xxxxxxxxxxxxx |xxxxxxxxxxxxx |xxxxxxxxxxxxx |xxxxxxxxxxxxx |           72 |           72 |           72 |xxxxxxxxxxxxx |xxxxxxxxxxxxx |xxxxxxxxxxxxx |xxxxxxxxxxxxx |           72 |           72 |           72 |xxxxxxxxxxxxx |xxxxxxxxxxxxx |xxxxxxxxxxxxx |xxxxxxxxxxxxx |           72 |           72 |           72 |xxxxxxxxxxxxx |xxxxxxxxxxxxx |xxxxxxxxxxxxx |xxxxxxxxxxxxx |           72 |           72 |           72 |xxxxxxxxxxxxx |xxxxxxxxxxxxx |xxxxxxxxxxxxx |xxxxxxxxxxxxx |           72 |           72 |           72 |xxxxxxxxxxxxx |xxxxxxxxxxxxx |xxxxxxxxxxxxx |xxxxxxxxxxxxx |           74 |           74 |           74 |xxxxxxxxxxxxx |xxxxxxxxxxxxx |xxxxxxxxxxxxx |xxxxxxxxxxxxx |           74 |           74 |           74 |xxxxxxxxxxxxx |xxxxxxxxxxxxx |xxxxxxxxxxxxx |xxxxxxxxxxxxx |           74 |           74 |           74 |
bpred_bimod.retstack_pops                       61 |           61 |           61 |xxxxxxxxxxxxx |xxxxxxxxxxxxx |xxxxxxxxxxxxx |xxxxxxxxxxxxx |           70 |           70 |           70 |xxxxxxxxxxxxx |xxxxxxxxxxxxx |xxxxxxxxxxxxx |xxxxxxxxxxxxx |           70 |           70 |           70 |xxxxxxxxxxxxx |xxxxxxxxxxxxx |xxxxxxxxxxxxx |xxxxxxxxxxxxx |           70 |           70 |           70 |xxxxxxxxxxxxx |xxxxxxxxxxxxx |xxxxxxxxxxxxx |xxxxxxxxxxxxx |           70 |           70 |           70 |xxxxxxxxxxxxx |xxxxxxxxxxxxx |xxxxxxxxxxxxx |xxxxxxxxxxxxx |           70 |           70 |           70 |xxxxxxxxxxxxx |xxxxxxxxxxxxx |xxxxxxxxxxxxx |xxxxxxxxxxxxx |           70 |           70 |           70 |xxxxxxxxxxxxx |xxxxxxxxxxxxx |xxxxxxxxxxxxx |xxxxxxxxxxxxx |           70 |           70 |           70 |xxxxxxxxxxxxx |xxxxxxxxxxxxx |xxxxxxxxxxxxx |xxxxxxxxxxxxx |           72 |           72 |           72 |xxxxxxxxxxxxx |xxxxxxxxxxxxx |xxxxxxxxxxxxx |xxxxxxxxxxxxx |           72 |           72 |           72 |xxxxxxxxxxxxx |xxxxxxxxxxxxx |xxxxxxxxxxxxx |xxxxxxxxxxxxx |           72 |           72 |           72 |
bpred_bimod.used_ras.PP                         61 |           61 |           61 |xxxxxxxxxxxxx |xxxxxxxxxxxxx |xxxxxxxxxxxxx |xxxxxxxxxxxxx |           70 |           70 |           70 |xxxxxxxxxxxxx |xxxxxxxxxxxxx |xxxxxxxxxxxxx |xxxxxxxxxxxxx |           70 |           70 |           70 |xxxxxxxxxxxxx |xxxxxxxxxxxxx |xxxxxxxxxxxxx |xxxxxxxxxxxxx |           70 |           70 |           70 |xxxxxxxxxxxxx |xxxxxxxxxxxxx |xxxxxxxxxxxxx |xxxxxxxxxxxxx |           70 |           70 |           70 |xxxxxxxxxxxxx |xxxxxxxxxxxxx |xxxxxxxxxxxxx |xxxxxxxxxxxxx |           70 |           70 |           70 |xxxxxxxxxxxxx |xxxxxxxxxxxxx |xxxxxxxxxxxxx |xxxxxxxxxxxxx |           70 |           70 |           70 |xxxxxxxxxxxxx |xxxxxxxxxxxxx |xxxxxxxxxxxxx |xxxxxxxxxxxxx |           70 |           70 |           70 |xxxxxxxxxxxxx |xxxxxxxxxxxxx |xxxxxxxxxxxxx |xxxxxxxxxxxxx |           72 |           72 |           72 |xxxxxxxxxxxxx |xxxxxxxxxxxxx |xxxxxxxxxxxxx |xxxxxxxxxxxxx |           72 |           72 |           72 |xxxxxxxxxxxxx |xxxxxxxxxxxxx |xxxxxxxxxxxxx |xxxxxxxxxxxxx |           72 |           72 |           72 |
bpred_bimod.ras_hits.PP                         61 |           61 |           61 |xxxxxxxxxxxxx |xxxxxxxxxxxxx |xxxxxxxxxxxxx |xxxxxxxxxxxxx |           69 |           69 |           69 |xxxxxxxxxxxxx |xxxxxxxxxxxxx |xxxxxxxxxxxxx |xxxxxxxxxxxxx |           69 |           69 |           69 |xxxxxxxxxxxxx |xxxxxxxxxxxxx |xxxxxxxxxxxxx |xxxxxxxxxxxxx |           69 |           69 |           69 |xxxxxxxxxxxxx |xxxxxxxxxxxxx |xxxxxxxxxxxxx |xxxxxxxxxxxxx |           69 |           69 |           69 |xxxxxxxxxxxxx |xxxxxxxxxxxxx |xxxxxxxxxxxxx |xxxxxxxxxxxxx |           69 |           69 |           69 |xxxxxxxxxxxxx |xxxxxxxxxxxxx |xxxxxxxxxxxxx |xxxxxxxxxxxxx |           69 |           69 |           69 |xxxxxxxxxxxxx |xxxxxxxxxxxxx |xxxxxxxxxxxxx |xxxxxxxxxxxxx |           69 |           69 |           69 |xxxxxxxxxxxxx |xxxxxxxxxxxxx |xxxxxxxxxxxxx |xxxxxxxxxxxxx |           72 |           72 |           72 |xxxxxxxxxxxxx |xxxxxxxxxxxxx |xxxxxxxxxxxxx |xxxxxxxxxxxxx |           72 |           72 |           72 |xxxxxxxxxxxxx |xxxxxxxxxxxxx |xxxxxxxxxxxxx |xxxxxxxxxxxxx |           72 |           72 |           72 |
bpred_bimod.ras_rate.PP                     1.0000 |       1.0000 |       1.0000 |xxxxxxxxxxxxx |xxxxxxxxxxxxx |xxxxxxxxxxxxx |xxxxxxxxxxxxx |       0.9857 |       0.9857 |       0.9857 |xxxxxxxxxxxxx |xxxxxxxxxxxxx |xxxxxxxxxxxxx |xxxxxxxxxxxxx |       0.9857 |       0.9857 |       0.9857 |xxxxxxxxxxxxx |xxxxxxxxxxxxx |xxxxxxxxxxxxx |xxxxxxxxxxxxx |       0.9857 |       0.9857 |       0.9857 |xxxxxxxxxxxxx |xxxxxxxxxxxxx |xxxxxxxxxxxxx |xxxxxxxxxxxxx |       0.9857 |       0.9857 |       0.9857 |xxxxxxxxxxxxx |xxxxxxxxxxxxx |xxxxxxxxxxxxx |xxxxxxxxxxxxx |       0.9857 |       0.9857 |       0.9857 |xxxxxxxxxxxxx |xxxxxxxxxxxxx |xxxxxxxxxxxxx |xxxxxxxxxxxxx |       0.9857 |       0.9857 |       0.9857 |xxxxxxxxxxxxx |xxxxxxxxxxxxx |xxxxxxxxxxxxx |xxxxxxxxxxxxx |       0.9857 |       0.9857 |       0.9857 |xxxxxxxxxxxxx |xxxxxxxxxxxxx |xxxxxxxxxxxxx |xxxxxxxxxxxxx |       1.0000 |       1.0000 |       1.0000 |xxxxxxxxxxxxx |xxxxxxxxxxxxx |xxxxxxxxxxxxx |xxxxxxxxxxxxx |       1.0000 |       1.0000 |       1.0000 |xxxxxxxxxxxxx |xxxxxxxxxxxxx |xxxxxxxxxxxxx |xxxxxxxxxxxxx |       1.0000 |       1.0000 |       1.0000 |
bpred_2lev.lookups                   xxxxxxxxxxxxx |xxxxxxxxxxxxx |xxxxxxxxxxxxx |         9241 |         9241 |         9241 |         9241 |xxxxxxxxxxxxx |xxxxxxxxxxxxx |xxxxxxxxxxxxx |        17473 |        17473 |        17473 |        17473 |xxxxxxxxxxxxx |xxxxxxxxxxxxx |xxxxxxxxxxxxx |        33857 |        33857 |        33857 |        33857 |xxxxxxxxxxxxx |xxxxxxxxxxxxx |xxxxxxxxxxxxx |        66625 |        66625 |        66625 |        66625 |xxxxxxxxxxxxx |xxxxxxxxxxxxx |xxxxxxxxxxxxx |       132161 |       132161 |       132161 |       132161 |xxxxxxxxxxxxx |xxxxxxxxxxxxx |xxxxxxxxxxxxx |       263233 |       263233 |       263233 |       263233 |xxxxxxxxxxxxx |xxxxxxxxxxxxx |xxxxxxxxxxxxx |       525377 |       525377 |       525377 |       525377 |xxxxxxxxxxxxx |xxxxxxxxxxxxx |xxxxxxxxxxxxx |      1049665 |      1049665 |      1049665 |      1049665 |xxxxxxxxxxxxx |xxxxxxxxxxxxx |xxxxxxxxxxxxx |      2099034 |      2099034 |      2099034 |      2099034 |xxxxxxxxxxxxx |xxxxxxxxxxxxx |xxxxxxxxxxxxx |      4196957 |      4196957 |      4196957 |      4196957 |xxxxxxxxxxxxx |xxxxxxxxxxxxx |xxxxxxxxxxxxx |      8392800 |      8392800 |      8392800 |      8392800 |
[...]
bpred_2lev.retstack_pops             xxxxxxxxxxxxx |xxxxxxxxxxxxx |xxxxxxxxxxxxx |           61 |           61 |           61 |           61 |xxxxxxxxxxxxx |xxxxxxxxxxxxx |xxxxxxxxxxxxx |           70 |           70 |           70 |           70 |xxxxxxxxxxxxx |xxxxxxxxxxxxx |xxxxxxxxxxxxx |           70 |           70 |           70 |           70 |xxxxxxxxxxxxx |xxxxxxxxxxxxx |xxxxxxxxxxxxx |           70 |           70 |           70 |           70 |xxxxxxxxxxxxx |xxxxxxxxxxxxx |xxxxxxxxxxxxx |           70 |           70 |           70 |           70 |xxxxxxxxxxxxx |xxxxxxxxxxxxx |xxxxxxxxxxxxx |           70 |           70 |           70 |           70 |xxxxxxxxxxxxx |xxxxxxxxxxxxx |xxxxxxxxxxxxx |           70 |           70 |           70 |           70 |xxxxxxxxxxxxx |xxxxxxxxxxxxx |xxxxxxxxxxxxx |           70 |           70 |           70 |           70 |xxxxxxxxxxxxx |xxxxxxxxxxxxx |xxxxxxxxxxxxx |           72 |           72 |           72 |           72 |xxxxxxxxxxxxx |xxxxxxxxxxxxx |xxxxxxxxxxxxx |           72 |           72 |           72 |           72 |xxxxxxxxxxxxx |xxxxxxxxxxxxx |xxxxxxxxxxxxx |           72 |           72 |           72 |           72 |
bpred_2lev.used_ras.PP               xxxxxxxxxxxxx |xxxxxxxxxxxxx |xxxxxxxxxxxxx |           61 |           61 |           61 |           61 |xxxxxxxxxxxxx |xxxxxxxxxxxxx |xxxxxxxxxxxxx |           70 |           70 |           70 |           70 |xxxxxxxxxxxxx |xxxxxxxxxxxxx |xxxxxxxxxxxxx |           70 |           70 |           70 |           70 |xxxxxxxxxxxxx |xxxxxxxxxxxxx |xxxxxxxxxxxxx |           70 |           70 |           70 |           70 |xxxxxxxxxxxxx |xxxxxxxxxxxxx |xxxxxxxxxxxxx |           70 |           70 |           70 |           70 |xxxxxxxxxxxxx |xxxxxxxxxxxxx |xxxxxxxxxxxxx |           70 |           70 |           70 |           70 |xxxxxxxxxxxxx |xxxxxxxxxxxxx |xxxxxxxxxxxxx |           70 |           70 |           70 |           70 |xxxxxxxxxxxxx |xxxxxxxxxxxxx |xxxxxxxxxxxxx |           70 |           70 |           70 |           70 |xxxxxxxxxxxxx |xxxxxxxxxxxxx |xxxxxxxxxxxxx |           72 |           72 |           72 |           72 |xxxxxxxxxxxxx |xxxxxxxxxxxxx |xxxxxxxxxxxxx |           72 |           72 |           72 |           72 |xxxxxxxxxxxxx |xxxxxxxxxxxxx |xxxxxxxxxxxxx |           72 |           72 |           72 |           72 |
bpred_2lev.ras_hits.PP               xxxxxxxxxxxxx |xxxxxxxxxxxxx |xxxxxxxxxxxxx |           61 |           61 |           61 |           61 |xxxxxxxxxxxxx |xxxxxxxxxxxxx |xxxxxxxxxxxxx |           69 |           69 |           69 |           69 |xxxxxxxxxxxxx |xxxxxxxxxxxxx |xxxxxxxxxxxxx |           69 |           69 |           69 |           69 |xxxxxxxxxxxxx |xxxxxxxxxxxxx |xxxxxxxxxxxxx |           69 |           69 |           69 |           69 |xxxxxxxxxxxxx |xxxxxxxxxxxxx |xxxxxxxxxxxxx |           69 |           69 |           69 |           69 |xxxxxxxxxxxxx |xxxxxxxxxxxxx |xxxxxxxxxxxxx |           69 |           69 |           69 |           69 |xxxxxxxxxxxxx |xxxxxxxxxxxxx |xxxxxxxxxxxxx |           69 |           69 |           69 |           69 |xxxxxxxxxxxxx |xxxxxxxxxxxxx |xxxxxxxxxxxxx |           69 |           69 |           69 |           69 |xxxxxxxxxxxxx |xxxxxxxxxxxxx |xxxxxxxxxxxxx |           72 |           72 |           72 |           72 |xxxxxxxxxxxxx |xxxxxxxxxxxxx |xxxxxxxxxxxxx |           72 |           72 |           72 |           72 |xxxxxxxxxxxxx |xxxxxxxxxxxxx |xxxxxxxxxxxxx |           72 |           72 |           72 |           72 |
bpred_2lev.ras_rate.PP               xxxxxxxxxxxxx |xxxxxxxxxxxxx |xxxxxxxxxxxxx |       1.0000 |       1.0000 |       1.0000 |       1.0000 |xxxxxxxxxxxxx |xxxxxxxxxxxxx |xxxxxxxxxxxxx |       0.9857 |       0.9857 |       0.9857 |       0.9857 |xxxxxxxxxxxxx |xxxxxxxxxxxxx |xxxxxxxxxxxxx |       0.9857 |       0.9857 |       0.9857 |       0.9857 |xxxxxxxxxxxxx |xxxxxxxxxxxxx |xxxxxxxxxxxxx |       0.9857 |       0.9857 |       0.9857 |       0.9857 |xxxxxxxxxxxxx |xxxxxxxxxxxxx |xxxxxxxxxxxxx |       0.9857 |       0.9857 |       0.9857 |       0.9857 |xxxxxxxxxxxxx |xxxxxxxxxxxxx |xxxxxxxxxxxxx |       0.9857 |       0.9857 |       0.9857 |       0.9857 |xxxxxxxxxxxxx |xxxxxxxxxxxxx |xxxxxxxxxxxxx |       0.9857 |       0.9857 |       0.9857 |       0.9857 |xxxxxxxxxxxxx |xxxxxxxxxxxxx |xxxxxxxxxxxxx |       0.9857 |       0.9857 |       0.9857 |       0.9857 |xxxxxxxxxxxxx |xxxxxxxxxxxxx |xxxxxxxxxxxxx |       1.0000 |       1.0000 |       1.0000 |       1.0000 |xxxxxxxxxxxxx |xxxxxxxxxxxxx |xxxxxxxxxxxxx |       1.0000 |       1.0000 |       1.0000 |       1.0000 |xxxxxxxxxxxxx |xxxxxxxxxxxxx |xxxxxxxxxxxxx |       1.0000 |       1.0000 |       1.0000 |       1.0000 |

Command list: 
	sslittle-na-sstrix-gcc -Wall -O3 -funroll-loops -finline-functions  -DRANDOM_SIZE=4096 -DOFFSET=5 -DSORT=memory_tuned_radixsort sorts/memory_tuned_radixsort693306441.c simpleMain.c -o memory_tuned_radixsort1287407158
	sim-cache -cache:dl1 dl1:256:32:1:l -cache:dl2 dl2:131072:32:1:l -cache:il1 il1:256:32:1:l -cache:il2 dl2 memory_tuned_radixsort1287407158
	sim-cache -cache:dl1 dl1:256:32:1:l -cache:dl2 dl2:65536:32:1:l -cache:il1 il1:256:32:1:l -cache:il2 dl2 memory_tuned_radixsort1287407158
	sim-cache -cache:dl1 dl1:1:32:256:l -cache:dl2 dl2:1:32:131072:l -cache:il1 il1:1:32:256:l -cache:il2 dl2 memory_tuned_radixsort1287407158
	sim-cache -cache:dl1 dl1:1:32:256:l -cache:dl2 dl2:1:32:65536:l -cache:il1 il1:1:32:256:l -cache:il2 dl2 memory_tuned_radixsort1287407158
	sim-bpred -bpred bimod -bpred:bimod 512 memory_tuned_radixsort1287407158
	sim-bpred -bpred bimod -bpred:bimod 1024 memory_tuned_radixsort1287407158
	sim-bpred -bpred bimod -bpred:bimod 2048 memory_tuned_radixsort1287407158
	sim-bpred -bpred 2lev -bpred:2lev 1 512 10 1 memory_tuned_radixsort1287407158
	sim-bpred -bpred 2lev -bpred:2lev 1 1024 10 1 memory_tuned_radixsort1287407158
	sim-bpred -bpred 2lev -bpred:2lev 1 2048 10 1 memory_tuned_radixsort1287407158
	sim-bpred -bpred 2lev -bpred:2lev 1 4096 10 1 memory_tuned_radixsort1287407158
	sslittle-na-sstrix-gcc -Wall -O3 -funroll-loops -finline-functions  -DRANDOM_SIZE=8192 -DOFFSET=5 -DSORT=memory_tuned_radixsort sorts/memory_tuned_radixsort693306441.c simpleMain.c -o memory_tuned_radixsort1287407158
	sim-cache -cache:dl1 dl1:256:32:1:l -cache:dl2 dl2:131072:32:1:l -cache:il1 il1:256:32:1:l -cache:il2 dl2 memory_tuned_radixsort1287407158
	sim-cache -cache:dl1 dl1:256:32:1:l -cache:dl2 dl2:65536:32:1:l -cache:il1 il1:256:32:1:l -cache:il2 dl2 memory_tuned_radixsort1287407158
	sim-cache -cache:dl1 dl1:1:32:256:l -cache:dl2 dl2:1:32:131072:l -cache:il1 il1:1:32:256:l -cache:il2 dl2 memory_tuned_radixsort1287407158
	sim-cache -cache:dl1 dl1:1:32:256:l -cache:dl2 dl2:1:32:65536:l -cache:il1 il1:1:32:256:l -cache:il2 dl2 memory_tuned_radixsort1287407158
	sim-bpred -bpred bimod -bpred:bimod 512 memory_tuned_radixsort1287407158
	sim-bpred -bpred bimod -bpred:bimod 1024 memory_tuned_radixsort1287407158
	sim-bpred -bpred bimod -bpred:bimod 2048 memory_tuned_radixsort1287407158
	sim-bpred -bpred 2lev -bpred:2lev 1 512 10 1 memory_tuned_radixsort1287407158
	sim-bpred -bpred 2lev -bpred:2lev 1 1024 10 1 memory_tuned_radixsort1287407158
	sim-bpred -bpred 2lev -bpred:2lev 1 2048 10 1 memory_tuned_radixsort1287407158
	sim-bpred -bpred 2lev -bpred:2lev 1 4096 10 1 memory_tuned_radixsort1287407158
	sslittle-na-sstrix-gcc -Wall -O3 -funroll-loops -finline-functions  -DRANDOM_SIZE=16384 -DOFFSET=5 -DSORT=memory_tuned_radixsort sorts/memory_tuned_radixsort693306441.c simpleMain.c -o memory_tuned_radixsort1287407158
	sim-cache -cache:dl1 dl1:256:32:1:l -cache:dl2 dl2:131072:32:1:l -cache:il1 il1:256:32:1:l -cache:il2 dl2 memory_tuned_radixsort1287407158
	sim-cache -cache:dl1 dl1:256:32:1:l -cache:dl2 dl2:65536:32:1:l -cache:il1 il1:256:32:1:l -cache:il2 dl2 memory_tuned_radixsort1287407158
	sim-cache -cache:dl1 dl1:1:32:256:l -cache:dl2 dl2:1:32:131072:l -cache:il1 il1:1:32:256:l -cache:il2 dl2 memory_tuned_radixsort1287407158
	sim-cache -cache:dl1 dl1:1:32:256:l -cache:dl2 dl2:1:32:65536:l -cache:il1 il1:1:32:256:l -cache:il2 dl2 memory_tuned_radixsort1287407158
	sim-bpred -bpred bimod -bpred:bimod 512 memory_tuned_radixsort1287407158
	sim-bpred -bpred bimod -bpred:bimod 1024 memory_tuned_radixsort1287407158
	sim-bpred -bpred bimod -bpred:bimod 2048 memory_tuned_radixsort1287407158
	sim-bpred -bpred 2lev -bpred:2lev 1 512 10 1 memory_tuned_radixsort1287407158
	sim-bpred -bpred 2lev -bpred:2lev 1 1024 10 1 memory_tuned_radixsort1287407158
	sim-bpred -bpred 2lev -bpred:2lev 1 2048 10 1 memory_tuned_radixsort1287407158
	sim-bpred -bpred 2lev -bpred:2lev 1 4096 10 1 memory_tuned_radixsort1287407158
	sslittle-na-sstrix-gcc -Wall -O3 -funroll-loops -finline-functions  -DRANDOM_SIZE=32768 -DOFFSET=5 -DSORT=memory_tuned_radixsort sorts/memory_tuned_radixsort693306441.c simpleMain.c -o memory_tuned_radixsort1287407158
	sim-cache -cache:dl1 dl1:256:32:1:l -cache:dl2 dl2:131072:32:1:l -cache:il1 il1:256:32:1:l -cache:il2 dl2 memory_tuned_radixsort1287407158
	sim-cache -cache:dl1 dl1:256:32:1:l -cache:dl2 dl2:65536:32:1:l -cache:il1 il1:256:32:1:l -cache:il2 dl2 memory_tuned_radixsort1287407158
	sim-cache -cache:dl1 dl1:1:32:256:l -cache:dl2 dl2:1:32:131072:l -cache:il1 il1:1:32:256:l -cache:il2 dl2 memory_tuned_radixsort1287407158
	sim-cache -cache:dl1 dl1:1:32:256:l -cache:dl2 dl2:1:32:65536:l -cache:il1 il1:1:32:256:l -cache:il2 dl2 memory_tuned_radixsort1287407158
	sim-bpred -bpred bimod -bpred:bimod 512 memory_tuned_radixsort1287407158
	sim-bpred -bpred bimod -bpred:bimod 1024 memory_tuned_radixsort1287407158
	sim-bpred -bpred bimod -bpred:bimod 2048 memory_tuned_radixsort1287407158
	sim-bpred -bpred 2lev -bpred:2lev 1 512 10 1 memory_tuned_radixsort1287407158
	sim-bpred -bpred 2lev -bpred:2lev 1 1024 10 1 memory_tuned_radixsort1287407158
	sim-bpred -bpred 2lev -bpred:2lev 1 2048 10 1 memory_tuned_radixsort1287407158
	sim-bpred -bpred 2lev -bpred:2lev 1 4096 10 1 memory_tuned_radixsort1287407158
	sslittle-na-sstrix-gcc -Wall -O3 -funroll-loops -finline-functions  -DRANDOM_SIZE=65536 -DOFFSET=5 -DSORT=memory_tuned_radixsort sorts/memory_tuned_radixsort693306441.c simpleMain.c -o memory_tuned_radixsort1287407158
	sim-cache -cache:dl1 dl1:256:32:1:l -cache:dl2 dl2:131072:32:1:l -cache:il1 il1:256:32:1:l -cache:il2 dl2 memory_tuned_radixsort1287407158
	sim-cache -cache:dl1 dl1:256:32:1:l -cache:dl2 dl2:65536:32:1:l -cache:il1 il1:256:32:1:l -cache:il2 dl2 memory_tuned_radixsort1287407158
	sim-cache -cache:dl1 dl1:1:32:256:l -cache:dl2 dl2:1:32:131072:l -cache:il1 il1:1:32:256:l -cache:il2 dl2 memory_tuned_radixsort1287407158
	sim-cache -cache:dl1 dl1:1:32:256:l -cache:dl2 dl2:1:32:65536:l -cache:il1 il1:1:32:256:l -cache:il2 dl2 memory_tuned_radixsort1287407158
	sim-bpred -bpred bimod -bpred:bimod 512 memory_tuned_radixsort1287407158
	sim-bpred -bpred bimod -bpred:bimod 1024 memory_tuned_radixsort1287407158
	sim-bpred -bpred bimod -bpred:bimod 2048 memory_tuned_radixsort1287407158
	sim-bpred -bpred 2lev -bpred:2lev 1 512 10 1 memory_tuned_radixsort1287407158
	sim-bpred -bpred 2lev -bpred:2lev 1 1024 10 1 memory_tuned_radixsort1287407158
	sim-bpred -bpred 2lev -bpred:2lev 1 2048 10 1 memory_tuned_radixsort1287407158
	sim-bpred -bpred 2lev -bpred:2lev 1 4096 10 1 memory_tuned_radixsort1287407158
	sslittle-na-sstrix-gcc -Wall -O3 -funroll-loops -finline-functions  -DRANDOM_SIZE=131072 -DOFFSET=5 -DSORT=memory_tuned_radixsort sorts/memory_tuned_radixsort693306441.c simpleMain.c -o memory_tuned_radixsort1287407158
	sim-cache -cache:dl1 dl1:256:32:1:l -cache:dl2 dl2:131072:32:1:l -cache:il1 il1:256:32:1:l -cache:il2 dl2 memory_tuned_radixsort1287407158
	sim-cache -cache:dl1 dl1:256:32:1:l -cache:dl2 dl2:65536:32:1:l -cache:il1 il1:256:32:1:l -cache:il2 dl2 memory_tuned_radixsort1287407158
	sim-cache -cache:dl1 dl1:1:32:256:l -cache:dl2 dl2:1:32:131072:l -cache:il1 il1:1:32:256:l -cache:il2 dl2 memory_tuned_radixsort1287407158
	sim-cache -cache:dl1 dl1:1:32:256:l -cache:dl2 dl2:1:32:65536:l -cache:il1 il1:1:32:256:l -cache:il2 dl2 memory_tuned_radixsort1287407158
	sim-bpred -bpred bimod -bpred:bimod 512 memory_tuned_radixsort1287407158
	sim-bpred -bpred bimod -bpred:bimod 1024 memory_tuned_radixsort1287407158
	sim-bpred -bpred bimod -bpred:bimod 2048 memory_tuned_radixsort1287407158
	sim-bpred -bpred 2lev -bpred:2lev 1 512 10 1 memory_tuned_radixsort1287407158
	sim-bpred -bpred 2lev -bpred:2lev 1 1024 10 1 memory_tuned_radixsort1287407158
	sim-bpred -bpred 2lev -bpred:2lev 1 2048 10 1 memory_tuned_radixsort1287407158
	sim-bpred -bpred 2lev -bpred:2lev 1 4096 10 1 memory_tuned_radixsort1287407158
	sslittle-na-sstrix-gcc -Wall -O3 -funroll-loops -finline-functions  -DRANDOM_SIZE=262144 -DOFFSET=5 -DSORT=memory_tuned_radixsort sorts/memory_tuned_radixsort693306441.c simpleMain.c -o memory_tuned_radixsort1287407158
	sim-cache -cache:dl1 dl1:256:32:1:l -cache:dl2 dl2:131072:32:1:l -cache:il1 il1:256:32:1:l -cache:il2 dl2 memory_tuned_radixsort1287407158
	sim-cache -cache:dl1 dl1:256:32:1:l -cache:dl2 dl2:65536:32:1:l -cache:il1 il1:256:32:1:l -cache:il2 dl2 memory_tuned_radixsort1287407158
	sim-cache -cache:dl1 dl1:1:32:256:l -cache:dl2 dl2:1:32:131072:l -cache:il1 il1:1:32:256:l -cache:il2 dl2 memory_tuned_radixsort1287407158
	sim-cache -cache:dl1 dl1:1:32:256:l -cache:dl2 dl2:1:32:65536:l -cache:il1 il1:1:32:256:l -cache:il2 dl2 memory_tuned_radixsort1287407158
	sim-bpred -bpred bimod -bpred:bimod 512 memory_tuned_radixsort1287407158
	sim-bpred -bpred bimod -bpred:bimod 1024 memory_tuned_radixsort1287407158
	sim-bpred -bpred bimod -bpred:bimod 2048 memory_tuned_radixsort1287407158
	sim-bpred -bpred 2lev -bpred:2lev 1 512 10 1 memory_tuned_radixsort1287407158
	sim-bpred -bpred 2lev -bpred:2lev 1 1024 10 1 memory_tuned_radixsort1287407158
	sim-bpred -bpred 2lev -bpred:2lev 1 2048 10 1 memory_tuned_radixsort1287407158
	sim-bpred -bpred 2lev -bpred:2lev 1 4096 10 1 memory_tuned_radixsort1287407158
	sslittle-na-sstrix-gcc -Wall -O3 -funroll-loops -finline-functions  -DRANDOM_SIZE=524288 -DOFFSET=5 -DSORT=memory_tuned_radixsort sorts/memory_tuned_radixsort693306441.c simpleMain.c -o memory_tuned_radixsort1287407158
	sim-cache -cache:dl1 dl1:256:32:1:l -cache:dl2 dl2:131072:32:1:l -cache:il1 il1:256:32:1:l -cache:il2 dl2 memory_tuned_radixsort1287407158
	sim-cache -cache:dl1 dl1:256:32:1:l -cache:dl2 dl2:65536:32:1:l -cache:il1 il1:256:32:1:l -cache:il2 dl2 memory_tuned_radixsort1287407158
	sim-cache -cache:dl1 dl1:1:32:256:l -cache:dl2 dl2:1:32:131072:l -cache:il1 il1:1:32:256:l -cache:il2 dl2 memory_tuned_radixsort1287407158
	sim-cache -cache:dl1 dl1:1:32:256:l -cache:dl2 dl2:1:32:65536:l -cache:il1 il1:1:32:256:l -cache:il2 dl2 memory_tuned_radixsort1287407158
	sim-bpred -bpred bimod -bpred:bimod 512 memory_tuned_radixsort1287407158
	sim-bpred -bpred bimod -bpred:bimod 1024 memory_tuned_radixsort1287407158
	sim-bpred -bpred bimod -bpred:bimod 2048 memory_tuned_radixsort1287407158
	sim-bpred -bpred 2lev -bpred:2lev 1 512 10 1 memory_tuned_radixsort1287407158
	sim-bpred -bpred 2lev -bpred:2lev 1 1024 10 1 memory_tuned_radixsort1287407158
	sim-bpred -bpred 2lev -bpred:2lev 1 2048 10 1 memory_tuned_radixsort1287407158
	sim-bpred -bpred 2lev -bpred:2lev 1 4096 10 1 memory_tuned_radixsort1287407158
	sslittle-na-sstrix-gcc -Wall -O3 -funroll-loops -finline-functions  -DRANDOM_SIZE=1048576 -DOFFSET=5 -DSORT=memory_tuned_radixsort sorts/memory_tuned_radixsort693306441.c simpleMain.c -o memory_tuned_radixsort1287407158
	sim-cache -cache:dl1 dl1:256:32:1:l -cache:dl2 dl2:131072:32:1:l -cache:il1 il1:256:32:1:l -cache:il2 dl2 memory_tuned_radixsort1287407158
	sim-cache -cache:dl1 dl1:256:32:1:l -cache:dl2 dl2:65536:32:1:l -cache:il1 il1:256:32:1:l -cache:il2 dl2 memory_tuned_radixsort1287407158
	sim-cache -cache:dl1 dl1:1:32:256:l -cache:dl2 dl2:1:32:131072:l -cache:il1 il1:1:32:256:l -cache:il2 dl2 memory_tuned_radixsort1287407158
	sim-cache -cache:dl1 dl1:1:32:256:l -cache:dl2 dl2:1:32:65536:l -cache:il1 il1:1:32:256:l -cache:il2 dl2 memory_tuned_radixsort1287407158
	sim-bpred -bpred bimod -bpred:bimod 512 memory_tuned_radixsort1287407158
	sim-bpred -bpred bimod -bpred:bimod 1024 memory_tuned_radixsort1287407158
	sim-bpred -bpred bimod -bpred:bimod 2048 memory_tuned_radixsort1287407158
	sim-bpred -bpred 2lev -bpred:2lev 1 512 10 1 memory_tuned_radixsort1287407158
	sim-bpred -bpred 2lev -bpred:2lev 1 1024 10 1 memory_tuned_radixsort1287407158
	sim-bpred -bpred 2lev -bpred:2lev 1 2048 10 1 memory_tuned_radixsort1287407158
	sim-bpred -bpred 2lev -bpred:2lev 1 4096 10 1 memory_tuned_radixsort1287407158
	sslittle-na-sstrix-gcc -Wall -O3 -funroll-loops -finline-functions  -DRANDOM_SIZE=2097152 -DOFFSET=5 -DSORT=memory_tuned_radixsort sorts/memory_tuned_radixsort693306441.c simpleMain.c -o memory_tuned_radixsort1287407158
	sim-cache -cache:dl1 dl1:256:32:1:l -cache:dl2 dl2:131072:32:1:l -cache:il1 il1:256:32:1:l -cache:il2 dl2 memory_tuned_radixsort1287407158
	sim-cache -cache:dl1 dl1:256:32:1:l -cache:dl2 dl2:65536:32:1:l -cache:il1 il1:256:32:1:l -cache:il2 dl2 memory_tuned_radixsort1287407158
	sim-cache -cache:dl1 dl1:1:32:256:l -cache:dl2 dl2:1:32:131072:l -cache:il1 il1:1:32:256:l -cache:il2 dl2 memory_tuned_radixsort1287407158
	sim-cache -cache:dl1 dl1:1:32:256:l -cache:dl2 dl2:1:32:65536:l -cache:il1 il1:1:32:256:l -cache:il2 dl2 memory_tuned_radixsort1287407158
	sim-bpred -bpred bimod -bpred:bimod 512 memory_tuned_radixsort1287407158
	sim-bpred -bpred bimod -bpred:bimod 1024 memory_tuned_radixsort1287407158
	sim-bpred -bpred bimod -bpred:bimod 2048 memory_tuned_radixsort1287407158
	sim-bpred -bpred 2lev -bpred:2lev 1 512 10 1 memory_tuned_radixsort1287407158
	sim-bpred -bpred 2lev -bpred:2lev 1 1024 10 1 memory_tuned_radixsort1287407158
	sim-bpred -bpred 2lev -bpred:2lev 1 2048 10 1 memory_tuned_radixsort1287407158
	sim-bpred -bpred 2lev -bpred:2lev 1 4096 10 1 memory_tuned_radixsort1287407158
	sslittle-na-sstrix-gcc -Wall -O3 -funroll-loops -finline-functions  -DRANDOM_SIZE=4194304 -DOFFSET=5 -DSORT=memory_tuned_radixsort sorts/memory_tuned_radixsort693306441.c simpleMain.c -o memory_tuned_radixsort1287407158
	sim-cache -cache:dl1 dl1:256:32:1:l -cache:dl2 dl2:131072:32:1:l -cache:il1 il1:256:32:1:l -cache:il2 dl2 memory_tuned_radixsort1287407158
	sim-cache -cache:dl1 dl1:256:32:1:l -cache:dl2 dl2:65536:32:1:l -cache:il1 il1:256:32:1:l -cache:il2 dl2 memory_tuned_radixsort1287407158
	sim-cache -cache:dl1 dl1:1:32:256:l -cache:dl2 dl2:1:32:131072:l -cache:il1 il1:1:32:256:l -cache:il2 dl2 memory_tuned_radixsort1287407158
	sim-cache -cache:dl1 dl1:1:32:256:l -cache:dl2 dl2:1:32:65536:l -cache:il1 il1:1:32:256:l -cache:il2 dl2 memory_tuned_radixsort1287407158
	sim-bpred -bpred bimod -bpred:bimod 512 memory_tuned_radixsort1287407158
	sim-bpred -bpred bimod -bpred:bimod 1024 memory_tuned_radixsort1287407158
	sim-bpred -bpred bimod -bpred:bimod 2048 memory_tuned_radixsort1287407158
	sim-bpred -bpred 2lev -bpred:2lev 1 512 10 1 memory_tuned_radixsort1287407158
	sim-bpred -bpred 2lev -bpred:2lev 1 1024 10 1 memory_tuned_radixsort1287407158
	sim-bpred -bpred 2lev -bpred:2lev 1 2048 10 1 memory_tuned_radixsort1287407158
	sim-bpred -bpred 2lev -bpred:2lev 1 4096 10 1 memory_tuned_radixsort1287407158
