Wed Jul 20 16:36:21 2005
Run as: "./do_simple -c random.org6 -o 6 cache_radixsort"
-------------------------------------------------------------------------------------------------
sim-cache                                     4096 |         4096 |         4096 |         4096 |         8192 |         8192 |         8192 |         8192 |        16384 |        16384 |        16384 |        16384 |        32768 |        32768 |        32768 |        32768 |        65536 |        65536 |        65536 |        65536 |       131072 |       131072 |       131072 |       131072 |       262144 |       262144 |       262144 |       262144 |       524288 |       524288 |       524288 |       524288 |      1048576 |      1048576 |      1048576 |      1048576 |      2097152 |      2097152 |      2097152 |      2097152 |      4194304 |      4194304 |      4194304 |      4194304 |
-cache:dl1 dl1:256:32:1:l -cache:dl2 dl2:131072:32:1:l -cache:il1 il1:256:32:1:l -cache:il2 dl2
-cache:dl1 dl1:256:32:1:l -cache:dl2 dl2:65536:32:1:l -cache:il1 il1:256:32:1:l -cache:il2 dl2
-cache:dl1 dl1:1:32:256:l -cache:dl2 dl2:1:32:131072:l -cache:il1 il1:1:32:256:l -cache:il2 dl2
-cache:dl1 dl1:1:32:256:l -cache:dl2 dl2:1:32:65536:l -cache:il1 il1:1:32:256:l -cache:il2 dl2
-------------------------------------------------------------------------------------------------
sim_num_insn                                378645 |       378645 |       378645 |       378645 |       744355 |       744355 |       744355 |       744355 |      1475493 |      1475493 |      1475493 |      1475493 |      2937766 |      2937766 |      2937766 |      2937766 |      5862310 |      5862310 |      5862310 |      5862310 |     11711399 |     11711399 |     11711399 |     11711399 |     23409575 |     23409575 |     23409575 |     23409575 |     46805927 |     46805927 |     46805927 |     46805927 |     93611107 |     93611107 |     93611107 |     93611107 |    187205739 |    187205739 |    187205739 |    187205739 |    374394995 |    374394995 |    374394995 |    374394995 |
sim_num_refs                                138910 |       138910 |       138910 |       138910 |       270026 |       270026 |       270026 |       270026 |       532170 |       532170 |       532170 |       532170 |      1056458 |      1056458 |      1056458 |      1056458 |      2105034 |      2105034 |      2105034 |      2105034 |      4202186 |      4202186 |      4202186 |      4202186 |      8396490 |      8396490 |      8396490 |      8396490 |     16785098 |     16785098 |     16785098 |     16785098 |     33571576 |     33571576 |     33571576 |     33571576 |     67132152 |     67132152 |     67132152 |     67132152 |    134253304 |    134253304 |    134253304 |    134253304 |
sim_elapsed_time                                 1 |            1 |           10 |            5 |            1 |            1 |           15 |            7 |            1 |            1 |           26 |           13 |            1 |            1 |           46 |           23 |            2 |            2 |           85 |           41 |            4 |            4 |          155 |           69 |            7 |            8 |          264 |           93 |           15 |           15 |          355 |          101 |           31 |           30 |          370 |          118 |           60 |           61 |          405 |          151 |          122 |          121 |          473 |          219 |
sim_inst_rate                          378645.0000 |  378645.0000 |   37864.5000 |   75729.0000 |  744355.0000 |  744355.0000 |   49623.6667 |  106336.4286 | 1475493.0000 | 1475493.0000 |   56749.7308 |  113499.4615 | 2937766.0000 | 2937766.0000 |   63864.4783 |  127728.9565 | 2931155.0000 | 2931155.0000 |   68968.3529 |  142983.1707 | 2927849.7500 | 2927849.7500 |   75557.4129 |  169730.4203 | 3344225.0000 | 2926196.8750 |   88672.6326 |  251715.8602 | 3120395.1333 | 3120395.1333 |  131847.6817 |  463425.0198 | 3019713.1290 | 3120370.2333 |  253002.9919 |  793314.4661 | 3120095.6500 | 3068946.5410 |  462236.3926 | 1239773.1060 | 3068811.4344 | 3094173.5124 |  791532.7590 | 1709566.1872 |
il1.accesses                                378645 |       378645 |       378645 |       378645 |       744355 |       744355 |       744355 |       744355 |      1475493 |      1475493 |      1475493 |      1475493 |      2937766 |      2937766 |      2937766 |      2937766 |      5862310 |      5862310 |      5862310 |      5862310 |     11711399 |     11711399 |     11711399 |     11711399 |     23409575 |     23409575 |     23409575 |     23409575 |     46805927 |     46805927 |     46805927 |     46805927 |     93611107 |     93611107 |     93611107 |     93611107 |    187205739 |    187205739 |    187205739 |    187205739 |    374394995 |    374394995 |    374394995 |    374394995 |
il1.hits                                    378187 |       378187 |       378243 |       378243 |       743876 |       743876 |       743933 |       743933 |      1475030 |      1475030 |      1475107 |      1475107 |      2937286 |      2937286 |      2937342 |      2937342 |      5861830 |      5861830 |      5861886 |      5861886 |     11710919 |     11710919 |     11710975 |     11710975 |     23409095 |     23409095 |     23409151 |     23409151 |     46805447 |     46805447 |     46805503 |     46805503 |     93610581 |     93610581 |     93610648 |     93610648 |    187205213 |    187205213 |    187205280 |    187205280 |    374394469 |    374394469 |    374394536 |    374394536 |
il1.misses                                     458 |          458 |          402 |          402 |          479 |          479 |          422 |          422 |          463 |          463 |          386 |          386 |          480 |          480 |          424 |          424 |          480 |          480 |          424 |          424 |          480 |          480 |          424 |          424 |          480 |          480 |          424 |          424 |          480 |          480 |          424 |          424 |          526 |          526 |          459 |          459 |          526 |          526 |          459 |          459 |          526 |          526 |          459 |          459 |
il1.replacements                               254 |          254 |          146 |          146 |          271 |          271 |          166 |          166 |          258 |          258 |          130 |          130 |          273 |          273 |          168 |          168 |          273 |          273 |          168 |          168 |          273 |          273 |          168 |          168 |          273 |          273 |          168 |          168 |          273 |          273 |          168 |          168 |          309 |          309 |          203 |          203 |          309 |          309 |          203 |          203 |          309 |          309 |          203 |          203 |
il1.writebacks                                   0 |            0 |            0 |            0 |            0 |            0 |            0 |            0 |            0 |            0 |            0 |            0 |            0 |            0 |            0 |            0 |            0 |            0 |            0 |            0 |            0 |            0 |            0 |            0 |            0 |            0 |            0 |            0 |            0 |            0 |            0 |            0 |            0 |            0 |            0 |            0 |            0 |            0 |            0 |            0 |            0 |            0 |            0 |            0 |
il1.invalidations                                0 |            0 |            0 |            0 |            0 |            0 |            0 |            0 |            0 |            0 |            0 |            0 |            0 |            0 |            0 |            0 |            0 |            0 |            0 |            0 |            0 |            0 |            0 |            0 |            0 |            0 |            0 |            0 |            0 |            0 |            0 |            0 |            0 |            0 |            0 |            0 |            0 |            0 |            0 |            0 |            0 |            0 |            0 |            0 |
il1.miss_rate                               0.0012 |       0.0012 |       0.0011 |       0.0011 |       0.0006 |       0.0006 |       0.0006 |       0.0006 |       0.0003 |       0.0003 |       0.0003 |       0.0003 |       0.0002 |       0.0002 |       0.0001 |       0.0001 |       0.0001 |       0.0001 |       0.0001 |       0.0001 |       0.0000 |       0.0000 |       0.0000 |       0.0000 |       0.0000 |       0.0000 |       0.0000 |       0.0000 |       0.0000 |       0.0000 |       0.0000 |       0.0000 |       0.0000 |       0.0000 |       0.0000 |       0.0000 |       0.0000 |       0.0000 |       0.0000 |       0.0000 |       0.0000 |       0.0000 |       0.0000 |       0.0000 |
il1.repl_rate                               0.0007 |       0.0007 |       0.0004 |       0.0004 |       0.0004 |       0.0004 |       0.0002 |       0.0002 |       0.0002 |       0.0002 |       0.0001 |       0.0001 |       0.0001 |       0.0001 |       0.0001 |       0.0001 |       0.0000 |       0.0000 |       0.0000 |       0.0000 |       0.0000 |       0.0000 |       0.0000 |       0.0000 |       0.0000 |       0.0000 |       0.0000 |       0.0000 |       0.0000 |       0.0000 |       0.0000 |       0.0000 |       0.0000 |       0.0000 |       0.0000 |       0.0000 |       0.0000 |       0.0000 |       0.0000 |       0.0000 |       0.0000 |       0.0000 |       0.0000 |       0.0000 |
il1.wb_rate                                 0.0000 |       0.0000 |       0.0000 |       0.0000 |       0.0000 |       0.0000 |       0.0000 |       0.0000 |       0.0000 |       0.0000 |       0.0000 |       0.0000 |       0.0000 |       0.0000 |       0.0000 |       0.0000 |       0.0000 |       0.0000 |       0.0000 |       0.0000 |       0.0000 |       0.0000 |       0.0000 |       0.0000 |       0.0000 |       0.0000 |       0.0000 |       0.0000 |       0.0000 |       0.0000 |       0.0000 |       0.0000 |       0.0000 |       0.0000 |       0.0000 |       0.0000 |       0.0000 |       0.0000 |       0.0000 |       0.0000 |       0.0000 |       0.0000 |       0.0000 |       0.0000 |
il1.inv_rate                                0.0000 |       0.0000 |       0.0000 |       0.0000 |       0.0000 |       0.0000 |       0.0000 |       0.0000 |       0.0000 |       0.0000 |       0.0000 |       0.0000 |       0.0000 |       0.0000 |       0.0000 |       0.0000 |       0.0000 |       0.0000 |       0.0000 |       0.0000 |       0.0000 |       0.0000 |       0.0000 |       0.0000 |       0.0000 |       0.0000 |       0.0000 |       0.0000 |       0.0000 |       0.0000 |       0.0000 |       0.0000 |       0.0000 |       0.0000 |       0.0000 |       0.0000 |       0.0000 |       0.0000 |       0.0000 |       0.0000 |       0.0000 |       0.0000 |       0.0000 |       0.0000 |
dl1.accesses                                155376 |       155376 |       155376 |       155376 |       302876 |       302876 |       302876 |       302876 |       597788 |       597788 |       597788 |       597788 |      1187612 |      1187612 |      1187612 |      1187612 |      2367260 |      2367260 |      2367260 |      2367260 |      4726556 |      4726556 |      4726556 |      4726556 |      9445148 |      9445148 |      9445148 |      9445148 |     18882332 |     18882332 |     18882332 |     18882332 |     37765962 |     37765962 |     37765962 |     37765962 |     75520842 |     75520842 |     75520842 |     75520842 |    151030602 |    151030602 |    151030602 |    151030602 |
dl1.hits                                    138925 |       138925 |       143876 |       143876 |       269846 |       269846 |       280609 |       280609 |       531227 |       531227 |       554090 |       554090 |      1052812 |      1052812 |      1101062 |      1101062 |      2096200 |      2096200 |      2195451 |      2195451 |      4172690 |      4172690 |      4383075 |      4383075 |      8273176 |      8273176 |      8759716 |      8759716 |     16449416 |     16449416 |     17511191 |     17511191 |     33078709 |     33078709 |     35023798 |     35023798 |     66443437 |     66443437 |     70036001 |     70036001 |    133551047 |    133551047 |    140063342 |    140063342 |
dl1.misses                                   16451 |        16451 |        11500 |        11500 |        33030 |        33030 |        22267 |        22267 |        66561 |        66561 |        43698 |        43698 |       134800 |       134800 |        86550 |        86550 |       271060 |       271060 |       171809 |       171809 |       553866 |       553866 |       343481 |       343481 |      1171972 |      1171972 |       685432 |       685432 |      2432916 |      2432916 |      1371141 |      1371141 |      4687253 |      4687253 |      2742164 |      2742164 |      9077405 |      9077405 |      5484841 |      5484841 |     17479555 |     17479555 |     10967260 |     10967260 |
dl1.replacements                             16195 |        16195 |        11244 |        11244 |        32774 |        32774 |        22011 |        22011 |        66305 |        66305 |        43442 |        43442 |       134544 |       134544 |        86294 |        86294 |       270804 |       270804 |       171553 |       171553 |       553610 |       553610 |       343225 |       343225 |      1171716 |      1171716 |       685176 |       685176 |      2432660 |      2432660 |      1370885 |      1370885 |      4686997 |      4686997 |      2741908 |      2741908 |      9077149 |      9077149 |      5484585 |      5484585 |     17479299 |     17479299 |     10967004 |     10967004 |
dl1.writebacks                               13551 |        13551 |         8729 |         8729 |        27364 |        27364 |        16922 |        16922 |        55412 |        55412 |        33224 |        33224 |       112710 |       112710 |        65834 |        65834 |       226943 |       226943 |       130610 |       130610 |       465897 |       465897 |       261322 |       261322 |       996322 |       996322 |       521351 |       521351 |      2081501 |      2081501 |      1043222 |      1043222 |      3984953 |      3984953 |      2086175 |      2086175 |      7672784 |      7672784 |      4173492 |      4173492 |     14671133 |     14671133 |      8345194 |      8345194 |
dl1.invalidations                                0 |            0 |            0 |            0 |            0 |            0 |            0 |            0 |            0 |            0 |            0 |            0 |            0 |            0 |            0 |            0 |            0 |            0 |            0 |            0 |            0 |            0 |            0 |            0 |            0 |            0 |            0 |            0 |            0 |            0 |            0 |            0 |            0 |            0 |            0 |            0 |            0 |            0 |            0 |            0 |            0 |            0 |            0 |            0 |
dl1.miss_rate                               0.1059 |       0.1059 |       0.0740 |       0.0740 |       0.1091 |       0.1091 |       0.0735 |       0.0735 |       0.1113 |       0.1113 |       0.0731 |       0.0731 |       0.1135 |       0.1135 |       0.0729 |       0.0729 |       0.1145 |       0.1145 |       0.0726 |       0.0726 |       0.1172 |       0.1172 |       0.0727 |       0.0727 |       0.1241 |       0.1241 |       0.0726 |       0.0726 |       0.1288 |       0.1288 |       0.0726 |       0.0726 |       0.1241 |       0.1241 |       0.0726 |       0.0726 |       0.1202 |       0.1202 |       0.0726 |       0.0726 |       0.1157 |       0.1157 |       0.0726 |       0.0726 |
dl1.repl_rate                               0.1042 |       0.1042 |       0.0724 |       0.0724 |       0.1082 |       0.1082 |       0.0727 |       0.0727 |       0.1109 |       0.1109 |       0.0727 |       0.0727 |       0.1133 |       0.1133 |       0.0727 |       0.0727 |       0.1144 |       0.1144 |       0.0725 |       0.0725 |       0.1171 |       0.1171 |       0.0726 |       0.0726 |       0.1241 |       0.1241 |       0.0725 |       0.0725 |       0.1288 |       0.1288 |       0.0726 |       0.0726 |       0.1241 |       0.1241 |       0.0726 |       0.0726 |       0.1202 |       0.1202 |       0.0726 |       0.0726 |       0.1157 |       0.1157 |       0.0726 |       0.0726 |
dl1.wb_rate                                 0.0872 |       0.0872 |       0.0562 |       0.0562 |       0.0903 |       0.0903 |       0.0559 |       0.0559 |       0.0927 |       0.0927 |       0.0556 |       0.0556 |       0.0949 |       0.0949 |       0.0554 |       0.0554 |       0.0959 |       0.0959 |       0.0552 |       0.0552 |       0.0986 |       0.0986 |       0.0553 |       0.0553 |       0.1055 |       0.1055 |       0.0552 |       0.0552 |       0.1102 |       0.1102 |       0.0552 |       0.0552 |       0.1055 |       0.1055 |       0.0552 |       0.0552 |       0.1016 |       0.1016 |       0.0553 |       0.0553 |       0.0971 |       0.0971 |       0.0553 |       0.0553 |
dl1.inv_rate                                0.0000 |       0.0000 |       0.0000 |       0.0000 |       0.0000 |       0.0000 |       0.0000 |       0.0000 |       0.0000 |       0.0000 |       0.0000 |       0.0000 |       0.0000 |       0.0000 |       0.0000 |       0.0000 |       0.0000 |       0.0000 |       0.0000 |       0.0000 |       0.0000 |       0.0000 |       0.0000 |       0.0000 |       0.0000 |       0.0000 |       0.0000 |       0.0000 |       0.0000 |       0.0000 |       0.0000 |       0.0000 |       0.0000 |       0.0000 |       0.0000 |       0.0000 |       0.0000 |       0.0000 |       0.0000 |       0.0000 |       0.0000 |       0.0000 |       0.0000 |       0.0000 |
dl2.accesses                                 30460 |        30460 |        20631 |        20631 |        60873 |        60873 |        39611 |        39611 |       122436 |       122436 |        77308 |        77308 |       247990 |       247990 |       152808 |       152808 |       498483 |       498483 |       302843 |       302843 |      1020243 |      1020243 |       605227 |       605227 |      2168774 |      2168774 |      1207207 |      1207207 |      4514897 |      4514897 |      2414787 |      2414787 |      8672732 |      8672732 |      4828798 |      4828798 |     16750715 |     16750715 |      9658792 |      9658792 |     32151214 |     32151214 |     19312913 |     19312913 |
dl2.hits                                     28546 |        28546 |        18733 |        18733 |        57932 |        57932 |        36699 |        36699 |       117452 |       117452 |        72352 |        72352 |       238899 |       238899 |       143750 |       143750 |       481198 |       481198 |       285593 |       285593 |       986574 |       986574 |       571593 |       571593 |      2102337 |      2090317 |      1140805 |      1138444 |      4370889 |      4057940 |      2279931 |      1817313 |      7790111 |      7381843 |      3635163 |      3541846 |     14195931 |     14052394 |      7086905 |      7046250 |     26818141 |     26673890 |     14089855 |     14070713 |
dl2.misses                                    1914 |         1914 |         1898 |         1898 |         2941 |         2941 |         2912 |         2912 |         4984 |         4984 |         4956 |         4956 |         9091 |         9091 |         9058 |         9058 |        17285 |        17285 |        17250 |        17250 |        33669 |        33669 |        33634 |        33634 |        66437 |        78457 |        66402 |        68763 |       144008 |       456957 |       134856 |       597474 |       882621 |      1290889 |      1193635 |      1286952 |      2554784 |      2698321 |      2571887 |      2612542 |      5333073 |      5477324 |      5223058 |      5242200 |
dl2.replacements                               236 |          236 |            0 |            0 |          250 |          250 |            0 |            0 |          265 |          265 |            0 |            0 |          275 |          275 |            0 |            0 |          277 |          277 |            0 |            0 |          277 |          277 |            0 |            0 |          277 |        14033 |            0 |         3227 |        14048 |       391421 |         3784 |       531938 |       751549 |      1225353 |      1062563 |      1221416 |      2423712 |      2632785 |      2440815 |      2547006 |      5202001 |      5411788 |      5091986 |      5176664 |
dl2.writebacks                                 158 |          158 |            0 |            0 |          156 |          156 |            0 |            0 |          170 |          170 |            0 |            0 |          178 |          178 |            0 |            0 |          178 |          178 |            0 |            0 |          178 |          178 |            0 |            0 |          178 |        10600 |            0 |         3000 |        10554 |       300414 |         3558 |       296261 |       596057 |       656459 |       591910 |       624729 |      1298009 |      1387178 |      1248072 |      1280927 |      2720166 |      2853627 |      2560355 |      2593307 |
dl2.invalidations                                0 |            0 |            0 |            0 |            0 |            0 |            0 |            0 |            0 |            0 |            0 |            0 |            0 |            0 |            0 |            0 |            0 |            0 |            0 |            0 |            0 |            0 |            0 |            0 |            0 |            0 |            0 |            0 |            0 |            0 |            0 |            0 |            0 |            0 |            0 |            0 |            0 |            0 |            0 |            0 |            0 |            0 |            0 |            0 |
dl2.miss_rate                               0.0628 |       0.0628 |       0.0920 |       0.0920 |       0.0483 |       0.0483 |       0.0735 |       0.0735 |       0.0407 |       0.0407 |       0.0641 |       0.0641 |       0.0367 |       0.0367 |       0.0593 |       0.0593 |       0.0347 |       0.0347 |       0.0570 |       0.0570 |       0.0330 |       0.0330 |       0.0556 |       0.0556 |       0.0306 |       0.0362 |       0.0550 |       0.0570 |       0.0319 |       0.1012 |       0.0558 |       0.2474 |       0.1018 |       0.1488 |       0.2472 |       0.2665 |       0.1525 |       0.1611 |       0.2663 |       0.2705 |       0.1659 |       0.1704 |       0.2704 |       0.2714 |
dl2.repl_rate                               0.0077 |       0.0077 |       0.0000 |       0.0000 |       0.0041 |       0.0041 |       0.0000 |       0.0000 |       0.0022 |       0.0022 |       0.0000 |       0.0000 |       0.0011 |       0.0011 |       0.0000 |       0.0000 |       0.0006 |       0.0006 |       0.0000 |       0.0000 |       0.0003 |       0.0003 |       0.0000 |       0.0000 |       0.0001 |       0.0065 |       0.0000 |       0.0027 |       0.0031 |       0.0867 |       0.0016 |       0.2203 |       0.0867 |       0.1413 |       0.2200 |       0.2529 |       0.1447 |       0.1572 |       0.2527 |       0.2637 |       0.1618 |       0.1683 |       0.2637 |       0.2680 |
dl2.wb_rate                                 0.0052 |       0.0052 |       0.0000 |       0.0000 |       0.0026 |       0.0026 |       0.0000 |       0.0000 |       0.0014 |       0.0014 |       0.0000 |       0.0000 |       0.0007 |       0.0007 |       0.0000 |       0.0000 |       0.0004 |       0.0004 |       0.0000 |       0.0000 |       0.0002 |       0.0002 |       0.0000 |       0.0000 |       0.0001 |       0.0049 |       0.0000 |       0.0025 |       0.0023 |       0.0665 |       0.0015 |       0.1227 |       0.0687 |       0.0757 |       0.1226 |       0.1294 |       0.0775 |       0.0828 |       0.1292 |       0.1326 |       0.0846 |       0.0888 |       0.1326 |       0.1343 |
dl2.inv_rate                                0.0000 |       0.0000 |       0.0000 |       0.0000 |       0.0000 |       0.0000 |       0.0000 |       0.0000 |       0.0000 |       0.0000 |       0.0000 |       0.0000 |       0.0000 |       0.0000 |       0.0000 |       0.0000 |       0.0000 |       0.0000 |       0.0000 |       0.0000 |       0.0000 |       0.0000 |       0.0000 |       0.0000 |       0.0000 |       0.0000 |       0.0000 |       0.0000 |       0.0000 |       0.0000 |       0.0000 |       0.0000 |       0.0000 |       0.0000 |       0.0000 |       0.0000 |       0.0000 |       0.0000 |       0.0000 |       0.0000 |       0.0000 |       0.0000 |       0.0000 |       0.0000 |
itlb.accesses                               378645 |       378645 |       378645 |       378645 |       744355 |       744355 |       744355 |       744355 |      1475493 |      1475493 |      1475493 |      1475493 |      2937766 |      2937766 |      2937766 |      2937766 |      5862310 |      5862310 |      5862310 |      5862310 |     11711399 |     11711399 |     11711399 |     11711399 |     23409575 |     23409575 |     23409575 |     23409575 |     46805927 |     46805927 |     46805927 |     46805927 |     93611107 |     93611107 |     93611107 |     93611107 |    187205739 |    187205739 |    187205739 |    187205739 |    374394995 |    374394995 |    374394995 |    374394995 |
itlb.hits                                   378635 |       378635 |       378635 |       378635 |       744345 |       744345 |       744345 |       744345 |      1475483 |      1475483 |      1475483 |      1475483 |      2937756 |      2937756 |      2937756 |      2937756 |      5862300 |      5862300 |      5862300 |      5862300 |     11711389 |     11711389 |     11711389 |     11711389 |     23409565 |     23409565 |     23409565 |     23409565 |     46805917 |     46805917 |     46805917 |     46805917 |     93611097 |     93611097 |     93611097 |     93611097 |    187205729 |    187205729 |    187205729 |    187205729 |    374394985 |    374394985 |    374394985 |    374394985 |
itlb.misses                                     10 |           10 |           10 |           10 |           10 |           10 |           10 |           10 |           10 |           10 |           10 |           10 |           10 |           10 |           10 |           10 |           10 |           10 |           10 |           10 |           10 |           10 |           10 |           10 |           10 |           10 |           10 |           10 |           10 |           10 |           10 |           10 |           10 |           10 |           10 |           10 |           10 |           10 |           10 |           10 |           10 |           10 |           10 |           10 |
itlb.replacements                                0 |            0 |            0 |            0 |            0 |            0 |            0 |            0 |            0 |            0 |            0 |            0 |            0 |            0 |            0 |            0 |            0 |            0 |            0 |            0 |            0 |            0 |            0 |            0 |            0 |            0 |            0 |            0 |            0 |            0 |            0 |            0 |            0 |            0 |            0 |            0 |            0 |            0 |            0 |            0 |            0 |            0 |            0 |            0 |
itlb.writebacks                                  0 |            0 |            0 |            0 |            0 |            0 |            0 |            0 |            0 |            0 |            0 |            0 |            0 |            0 |            0 |            0 |            0 |            0 |            0 |            0 |            0 |            0 |            0 |            0 |            0 |            0 |            0 |            0 |            0 |            0 |            0 |            0 |            0 |            0 |            0 |            0 |            0 |            0 |            0 |            0 |            0 |            0 |            0 |            0 |
itlb.invalidations                               0 |            0 |            0 |            0 |            0 |            0 |            0 |            0 |            0 |            0 |            0 |            0 |            0 |            0 |            0 |            0 |            0 |            0 |            0 |            0 |            0 |            0 |            0 |            0 |            0 |            0 |            0 |            0 |            0 |            0 |            0 |            0 |            0 |            0 |            0 |            0 |            0 |            0 |            0 |            0 |            0 |            0 |            0 |            0 |
itlb.miss_rate                              0.0000 |       0.0000 |       0.0000 |       0.0000 |       0.0000 |       0.0000 |       0.0000 |       0.0000 |       0.0000 |       0.0000 |       0.0000 |       0.0000 |       0.0000 |       0.0000 |       0.0000 |       0.0000 |       0.0000 |       0.0000 |       0.0000 |       0.0000 |       0.0000 |       0.0000 |       0.0000 |       0.0000 |       0.0000 |       0.0000 |       0.0000 |       0.0000 |       0.0000 |       0.0000 |       0.0000 |       0.0000 |       0.0000 |       0.0000 |       0.0000 |       0.0000 |       0.0000 |       0.0000 |       0.0000 |       0.0000 |       0.0000 |       0.0000 |       0.0000 |       0.0000 |
itlb.repl_rate                              0.0000 |       0.0000 |       0.0000 |       0.0000 |       0.0000 |       0.0000 |       0.0000 |       0.0000 |       0.0000 |       0.0000 |       0.0000 |       0.0000 |       0.0000 |       0.0000 |       0.0000 |       0.0000 |       0.0000 |       0.0000 |       0.0000 |       0.0000 |       0.0000 |       0.0000 |       0.0000 |       0.0000 |       0.0000 |       0.0000 |       0.0000 |       0.0000 |       0.0000 |       0.0000 |       0.0000 |       0.0000 |       0.0000 |       0.0000 |       0.0000 |       0.0000 |       0.0000 |       0.0000 |       0.0000 |       0.0000 |       0.0000 |       0.0000 |       0.0000 |       0.0000 |
itlb.wb_rate                                0.0000 |       0.0000 |       0.0000 |       0.0000 |       0.0000 |       0.0000 |       0.0000 |       0.0000 |       0.0000 |       0.0000 |       0.0000 |       0.0000 |       0.0000 |       0.0000 |       0.0000 |       0.0000 |       0.0000 |       0.0000 |       0.0000 |       0.0000 |       0.0000 |       0.0000 |       0.0000 |       0.0000 |       0.0000 |       0.0000 |       0.0000 |       0.0000 |       0.0000 |       0.0000 |       0.0000 |       0.0000 |       0.0000 |       0.0000 |       0.0000 |       0.0000 |       0.0000 |       0.0000 |       0.0000 |       0.0000 |       0.0000 |       0.0000 |       0.0000 |       0.0000 |
itlb.inv_rate                               0.0000 |       0.0000 |       0.0000 |       0.0000 |       0.0000 |       0.0000 |       0.0000 |       0.0000 |       0.0000 |       0.0000 |       0.0000 |       0.0000 |       0.0000 |       0.0000 |       0.0000 |       0.0000 |       0.0000 |       0.0000 |       0.0000 |       0.0000 |       0.0000 |       0.0000 |       0.0000 |       0.0000 |       0.0000 |       0.0000 |       0.0000 |       0.0000 |       0.0000 |       0.0000 |       0.0000 |       0.0000 |       0.0000 |       0.0000 |       0.0000 |       0.0000 |       0.0000 |       0.0000 |       0.0000 |       0.0000 |       0.0000 |       0.0000 |       0.0000 |       0.0000 |
dtlb.accesses                               155376 |       155376 |       155376 |       155376 |       302876 |       302876 |       302876 |       302876 |       597788 |       597788 |       597788 |       597788 |      1187612 |      1187612 |      1187612 |      1187612 |      2367260 |      2367260 |      2367260 |      2367260 |      4726556 |      4726556 |      4726556 |      4726556 |      9445148 |      9445148 |      9445148 |      9445148 |     18882332 |     18882332 |     18882332 |     18882332 |     37765962 |     37765962 |     37765962 |     37765962 |     75520842 |     75520842 |     75520842 |     75520842 |    151030602 |    151030602 |    151030602 |    151030602 |
dtlb.hits                                   155361 |       155361 |       155361 |       155361 |       302853 |       302853 |       302853 |       302853 |       597749 |       597749 |       597749 |       597749 |      1187541 |      1187541 |      1187541 |      1187541 |      2367113 |      2367113 |      2367113 |      2367113 |      4716120 |      4716120 |      4716120 |      4716120 |      8918874 |      8918874 |      8918874 |      8918874 |     17543652 |     17543652 |     17543652 |     17543652 |     34507669 |     34507669 |     34507669 |     34507669 |     68294744 |     68294744 |     68294744 |     68294744 |    135748780 |    135748780 |    135748780 |    135748780 |
dtlb.misses                                     15 |           15 |           15 |           15 |           23 |           23 |           23 |           23 |           39 |           39 |           39 |           39 |           71 |           71 |           71 |           71 |          147 |          147 |          147 |          147 |        10436 |        10436 |        10436 |        10436 |       526274 |       526274 |       526274 |       526274 |      1338680 |      1338680 |      1338680 |      1338680 |      3258293 |      3258293 |      3258293 |      3258293 |      7226098 |      7226098 |      7226098 |      7226098 |     15281822 |     15281822 |     15281822 |     15281822 |
dtlb.replacements                                0 |            0 |            0 |            0 |            0 |            0 |            0 |            0 |            0 |            0 |            0 |            0 |            0 |            0 |            0 |            0 |           19 |           19 |           19 |           19 |        10308 |        10308 |        10308 |        10308 |       526146 |       526146 |       526146 |       526146 |      1338552 |      1338552 |      1338552 |      1338552 |      3258165 |      3258165 |      3258165 |      3258165 |      7225970 |      7225970 |      7225970 |      7225970 |     15281694 |     15281694 |     15281694 |     15281694 |
dtlb.writebacks                                  0 |            0 |            0 |            0 |            0 |            0 |            0 |            0 |            0 |            0 |            0 |            0 |            0 |            0 |            0 |            0 |           15 |           15 |           15 |           15 |         9782 |         9782 |         9782 |         9782 |       524868 |       524868 |       524868 |       524868 |      1335995 |      1335995 |      1335995 |      1335995 |      3253114 |      3253114 |      3253114 |      3253114 |      7215809 |      7215809 |      7215809 |      7215809 |     15261314 |     15261314 |     15261314 |     15261314 |
dtlb.invalidations                               0 |            0 |            0 |            0 |            0 |            0 |            0 |            0 |            0 |            0 |            0 |            0 |            0 |            0 |            0 |            0 |            0 |            0 |            0 |            0 |            0 |            0 |            0 |            0 |            0 |            0 |            0 |            0 |            0 |            0 |            0 |            0 |            0 |            0 |            0 |            0 |            0 |            0 |            0 |            0 |            0 |            0 |            0 |            0 |
dtlb.miss_rate                              0.0001 |       0.0001 |       0.0001 |       0.0001 |       0.0001 |       0.0001 |       0.0001 |       0.0001 |       0.0001 |       0.0001 |       0.0001 |       0.0001 |       0.0001 |       0.0001 |       0.0001 |       0.0001 |       0.0001 |       0.0001 |       0.0001 |       0.0001 |       0.0022 |       0.0022 |       0.0022 |       0.0022 |       0.0557 |       0.0557 |       0.0557 |       0.0557 |       0.0709 |       0.0709 |       0.0709 |       0.0709 |       0.0863 |       0.0863 |       0.0863 |       0.0863 |       0.0957 |       0.0957 |       0.0957 |       0.0957 |       0.1012 |       0.1012 |       0.1012 |       0.1012 |
dtlb.repl_rate                              0.0000 |       0.0000 |       0.0000 |       0.0000 |       0.0000 |       0.0000 |       0.0000 |       0.0000 |       0.0000 |       0.0000 |       0.0000 |       0.0000 |       0.0000 |       0.0000 |       0.0000 |       0.0000 |       0.0000 |       0.0000 |       0.0000 |       0.0000 |       0.0022 |       0.0022 |       0.0022 |       0.0022 |       0.0557 |       0.0557 |       0.0557 |       0.0557 |       0.0709 |       0.0709 |       0.0709 |       0.0709 |       0.0863 |       0.0863 |       0.0863 |       0.0863 |       0.0957 |       0.0957 |       0.0957 |       0.0957 |       0.1012 |       0.1012 |       0.1012 |       0.1012 |
dtlb.wb_rate                                0.0000 |       0.0000 |       0.0000 |       0.0000 |       0.0000 |       0.0000 |       0.0000 |       0.0000 |       0.0000 |       0.0000 |       0.0000 |       0.0000 |       0.0000 |       0.0000 |       0.0000 |       0.0000 |       0.0000 |       0.0000 |       0.0000 |       0.0000 |       0.0021 |       0.0021 |       0.0021 |       0.0021 |       0.0556 |       0.0556 |       0.0556 |       0.0556 |       0.0708 |       0.0708 |       0.0708 |       0.0708 |       0.0861 |       0.0861 |       0.0861 |       0.0861 |       0.0955 |       0.0955 |       0.0955 |       0.0955 |       0.1010 |       0.1010 |       0.1010 |       0.1010 |
dtlb.inv_rate                               0.0000 |       0.0000 |       0.0000 |       0.0000 |       0.0000 |       0.0000 |       0.0000 |       0.0000 |       0.0000 |       0.0000 |       0.0000 |       0.0000 |       0.0000 |       0.0000 |       0.0000 |       0.0000 |       0.0000 |       0.0000 |       0.0000 |       0.0000 |       0.0000 |       0.0000 |       0.0000 |       0.0000 |       0.0000 |       0.0000 |       0.0000 |       0.0000 |       0.0000 |       0.0000 |       0.0000 |       0.0000 |       0.0000 |       0.0000 |       0.0000 |       0.0000 |       0.0000 |       0.0000 |       0.0000 |       0.0000 |       0.0000 |       0.0000 |       0.0000 |       0.0000 |
ld_text_base                            0x00400000 |   0x00400000 |   0x00400000 |   0x00400000 |   0x00400000 |   0x00400000 |   0x00400000 |   0x00400000 |   0x00400000 |   0x00400000 |   0x00400000 |   0x00400000 |   0x00400000 |   0x00400000 |   0x00400000 |   0x00400000 |   0x00400000 |   0x00400000 |   0x00400000 |   0x00400000 |   0x00400000 |   0x00400000 |   0x00400000 |   0x00400000 |   0x00400000 |   0x00400000 |   0x00400000 |   0x00400000 |   0x00400000 |   0x00400000 |   0x00400000 |   0x00400000 |   0x00400000 |   0x00400000 |   0x00400000 |   0x00400000 |   0x00400000 |   0x00400000 |   0x00400000 |   0x00400000 |   0x00400000 |   0x00400000 |   0x00400000 |   0x00400000 |
ld_text_size                                 73856 |        73856 |        73856 |        73856 |        73888 |        73888 |        73888 |        73888 |        73904 |        73904 |        73904 |        73904 |        73920 |        73920 |        73920 |        73920 |        73920 |        73920 |        73920 |        73920 |        73920 |        73920 |        73920 |        73920 |        73920 |        73920 |        73920 |        73920 |        73920 |        73920 |        73920 |        73920 |        73920 |        73920 |        73920 |        73920 |        73920 |        73920 |        73920 |        73920 |        73920 |        73920 |        73920 |        73920 |
ld_data_base                            0x10000000 |   0x10000000 |   0x10000000 |   0x10000000 |   0x10000000 |   0x10000000 |   0x10000000 |   0x10000000 |   0x10000000 |   0x10000000 |   0x10000000 |   0x10000000 |   0x10000000 |   0x10000000 |   0x10000000 |   0x10000000 |   0x10000000 |   0x10000000 |   0x10000000 |   0x10000000 |   0x10000000 |   0x10000000 |   0x10000000 |   0x10000000 |   0x10000000 |   0x10000000 |   0x10000000 |   0x10000000 |   0x10000000 |   0x10000000 |   0x10000000 |   0x10000000 |   0x10000000 |   0x10000000 |   0x10000000 |   0x10000000 |   0x10000000 |   0x10000000 |   0x10000000 |   0x10000000 |   0x10000000 |   0x10000000 |   0x10000000 |   0x10000000 |
ld_data_size                                  8192 |         8192 |         8192 |         8192 |         8192 |         8192 |         8192 |         8192 |         8192 |         8192 |         8192 |         8192 |         8192 |         8192 |         8192 |         8192 |         8192 |         8192 |         8192 |         8192 |         8192 |         8192 |         8192 |         8192 |         8192 |         8192 |         8192 |         8192 |         8192 |         8192 |         8192 |         8192 |         8192 |         8192 |         8192 |         8192 |         8192 |         8192 |         8192 |         8192 |         8192 |         8192 |         8192 |         8192 |
ld_stack_base                           0x7fffc000 |   0x7fffc000 |   0x7fffc000 |   0x7fffc000 |   0x7fffc000 |   0x7fffc000 |   0x7fffc000 |   0x7fffc000 |   0x7fffc000 |   0x7fffc000 |   0x7fffc000 |   0x7fffc000 |   0x7fffc000 |   0x7fffc000 |   0x7fffc000 |   0x7fffc000 |   0x7fffc000 |   0x7fffc000 |   0x7fffc000 |   0x7fffc000 |   0x7fffc000 |   0x7fffc000 |   0x7fffc000 |   0x7fffc000 |   0x7fffc000 |   0x7fffc000 |   0x7fffc000 |   0x7fffc000 |   0x7fffc000 |   0x7fffc000 |   0x7fffc000 |   0x7fffc000 |   0x7fffc000 |   0x7fffc000 |   0x7fffc000 |   0x7fffc000 |   0x7fffc000 |   0x7fffc000 |   0x7fffc000 |   0x7fffc000 |   0x7fffc000 |   0x7fffc000 |   0x7fffc000 |   0x7fffc000 |
ld_stack_size                                16384 |        16384 |        16384 |        16384 |        16384 |        16384 |        16384 |        16384 |        16384 |        16384 |        16384 |        16384 |        16384 |        16384 |        16384 |        16384 |        16384 |        16384 |        16384 |        16384 |        16384 |        16384 |        16384 |        16384 |        16384 |        16384 |        16384 |        16384 |        16384 |        16384 |        16384 |        16384 |        16384 |        16384 |        16384 |        16384 |        16384 |        16384 |        16384 |        16384 |        16384 |        16384 |        16384 |        16384 |
ld_prog_entry                           0x00400140 |   0x00400140 |   0x00400140 |   0x00400140 |   0x00400140 |   0x00400140 |   0x00400140 |   0x00400140 |   0x00400140 |   0x00400140 |   0x00400140 |   0x00400140 |   0x00400140 |   0x00400140 |   0x00400140 |   0x00400140 |   0x00400140 |   0x00400140 |   0x00400140 |   0x00400140 |   0x00400140 |   0x00400140 |   0x00400140 |   0x00400140 |   0x00400140 |   0x00400140 |   0x00400140 |   0x00400140 |   0x00400140 |   0x00400140 |   0x00400140 |   0x00400140 |   0x00400140 |   0x00400140 |   0x00400140 |   0x00400140 |   0x00400140 |   0x00400140 |   0x00400140 |   0x00400140 |   0x00400140 |   0x00400140 |   0x00400140 |   0x00400140 |
ld_environ_base                         0x7fff8000 |   0x7fff8000 |   0x7fff8000 |   0x7fff8000 |   0x7fff8000 |   0x7fff8000 |   0x7fff8000 |   0x7fff8000 |   0x7fff8000 |   0x7fff8000 |   0x7fff8000 |   0x7fff8000 |   0x7fff8000 |   0x7fff8000 |   0x7fff8000 |   0x7fff8000 |   0x7fff8000 |   0x7fff8000 |   0x7fff8000 |   0x7fff8000 |   0x7fff8000 |   0x7fff8000 |   0x7fff8000 |   0x7fff8000 |   0x7fff8000 |   0x7fff8000 |   0x7fff8000 |   0x7fff8000 |   0x7fff8000 |   0x7fff8000 |   0x7fff8000 |   0x7fff8000 |   0x7fff8000 |   0x7fff8000 |   0x7fff8000 |   0x7fff8000 |   0x7fff8000 |   0x7fff8000 |   0x7fff8000 |   0x7fff8000 |   0x7fff8000 |   0x7fff8000 |   0x7fff8000 |   0x7fff8000 |
ld_target_big_endian                             0 |            0 |            0 |            0 |            0 |            0 |            0 |            0 |            0 |            0 |            0 |            0 |            0 |            0 |            0 |            0 |            0 |            0 |            0 |            0 |            0 |            0 |            0 |            0 |            0 |            0 |            0 |            0 |            0 |            0 |            0 |            0 |            0 |            0 |            0 |            0 |            0 |            0 |            0 |            0 |            0 |            0 |            0 |            0 |
mem.page_count                                  34 |           34 |           34 |           34 |           42 |           42 |           42 |           42 |           58 |           58 |           58 |           58 |           90 |           90 |           90 |           90 |          154 |          154 |          154 |          154 |          282 |          282 |          282 |          282 |          538 |          538 |          538 |          538 |         1050 |         1050 |         1050 |         1050 |         2080 |         2080 |         2080 |         2080 |         4134 |         4134 |         4134 |         4134 |         8242 |         8242 |         8242 |         8242 |
mem.page_mem                                  136k |         136k |         136k |         136k |         168k |         168k |         168k |         168k |         232k |         232k |         232k |         232k |         360k |         360k |         360k |         360k |         616k |         616k |         616k |         616k |        1128k |        1128k |        1128k |        1128k |        2152k |        2152k |        2152k |        2152k |        4200k |        4200k |        4200k |        4200k |        8320k |        8320k |        8320k |        8320k |       16536k |       16536k |       16536k |       16536k |       32968k |       32968k |       32968k |       32968k |
mem.ptab_misses                                 34 |           34 |           34 |           34 |           42 |           42 |           42 |           42 |           58 |           58 |           58 |           58 |           90 |           90 |           90 |           90 |          154 |          154 |          154 |          154 |          282 |          282 |          282 |          282 |          538 |          538 |          538 |          538 |         1050 |         1050 |         1050 |         1050 |        18467 |        18467 |        18467 |        18467 |        18477 |        18477 |        18477 |        18477 |        22585 |        22585 |        22585 |        22585 |
mem.ptab_accesses                          2283048 |      2283048 |      2283048 |      2283048 |      4041080 |      4041080 |      4041080 |      4041080 |      7555552 |      7555552 |      7555552 |      7555552 |     14584388 |     14584388 |     14584388 |     14584388 |     28641860 |     28641860 |     28641860 |     28641860 |     56756808 |     56756808 |     56756808 |     56756808 |    112986696 |    112986696 |    112986696 |    112986696 |    225446472 |    225446472 |    225446472 |    225446472 |    450434452 |    450434452 |    450434452 |    450434452 |    900322740 |    900322740 |    900322740 |    900322740 |   1800099284 |   1800099284 |   1800099284 |   1800099284 |
mem.ptab_miss_rate                          0.0000 |       0.0000 |       0.0000 |       0.0000 |       0.0000 |       0.0000 |       0.0000 |       0.0000 |       0.0000 |       0.0000 |       0.0000 |       0.0000 |       0.0000 |       0.0000 |       0.0000 |       0.0000 |       0.0000 |       0.0000 |       0.0000 |       0.0000 |       0.0000 |       0.0000 |       0.0000 |       0.0000 |       0.0000 |       0.0000 |       0.0000 |       0.0000 |       0.0000 |       0.0000 |       0.0000 |       0.0000 |       0.0000 |       0.0000 |       0.0000 |       0.0000 |       0.0000 |       0.0000 |       0.0000 |       0.0000 |       0.0000 |       0.0000 |       0.0000 |       0.0000 |
-------------------------------------------------------------------------------------------------
sim-bpred                                     4096 |         4096 |         4096 |         4096 |         4096 |         4096 |         4096 |         8192 |         8192 |         8192 |         8192 |         8192 |         8192 |         8192 |        16384 |        16384 |        16384 |        16384 |        16384 |        16384 |        16384 |        32768 |        32768 |        32768 |        32768 |        32768 |        32768 |        32768 |        65536 |        65536 |        65536 |        65536 |        65536 |        65536 |        65536 |       131072 |       131072 |       131072 |       131072 |       131072 |       131072 |       131072 |       262144 |       262144 |       262144 |       262144 |       262144 |       262144 |       262144 |       524288 |       524288 |       524288 |       524288 |       524288 |       524288 |       524288 |      1048576 |      1048576 |      1048576 |      1048576 |      1048576 |      1048576 |      1048576 |      2097152 |      2097152 |      2097152 |      2097152 |      2097152 |      2097152 |      2097152 |      4194304 |      4194304 |      4194304 |      4194304 |      4194304 |      4194304 |      4194304 |
-bpred bimod -bpred:bimod 512
-bpred bimod -bpred:bimod 1024
-bpred bimod -bpred:bimod 2048
-bpred 2lev -bpred:2lev 1 512 10 1
-bpred 2lev -bpred:2lev 1 1024 10 1
-bpred 2lev -bpred:2lev 1 2048 10 1
-bpred 2lev -bpred:2lev 1 4096 10 1
-------------------------------------------------------------------------------------------------
sim_num_insn                                378645 |       378645 |       378645 |       378645 |       378645 |       378645 |       378645 |       744355 |       744355 |       744355 |       744355 |       744355 |       744355 |       744355 |      1475493 |      1475493 |      1475493 |      1475493 |      1475493 |      1475493 |      1475493 |      2937766 |      2937766 |      2937766 |      2937766 |      2937766 |      2937766 |      2937766 |      5862310 |      5862310 |      5862310 |      5862310 |      5862310 |      5862310 |      5862310 |     11711399 |     11711399 |     11711399 |     11711399 |     11711399 |     11711399 |     11711399 |     23409575 |     23409575 |     23409575 |     23409575 |     23409575 |     23409575 |     23409575 |     46805927 |     46805927 |     46805927 |     46805927 |     46805927 |     46805927 |     46805927 |     93611107 |     93611107 |     93611107 |     93611107 |     93611107 |     93611107 |     93611107 |    187205739 |    187205739 |    187205739 |    187205739 |    187205739 |    187205739 |    187205739 |    374394995 |    374394995 |    374394995 |    374394995 |    374394995 |    374394995 |    374394995 |
sim_num_refs                                138910 |       138910 |       138910 |       138910 |       138910 |       138910 |       138910 |       270026 |       270026 |       270026 |       270026 |       270026 |       270026 |       270026 |       532170 |       532170 |       532170 |       532170 |       532170 |       532170 |       532170 |      1056458 |      1056458 |      1056458 |      1056458 |      1056458 |      1056458 |      1056458 |      2105034 |      2105034 |      2105034 |      2105034 |      2105034 |      2105034 |      2105034 |      4202186 |      4202186 |      4202186 |      4202186 |      4202186 |      4202186 |      4202186 |      8396490 |      8396490 |      8396490 |      8396490 |      8396490 |      8396490 |      8396490 |     16785098 |     16785098 |     16785098 |     16785098 |     16785098 |     16785098 |     16785098 |     33571576 |     33571576 |     33571576 |     33571576 |     33571576 |     33571576 |     33571576 |     67132152 |     67132152 |     67132152 |     67132152 |     67132152 |     67132152 |     67132152 |    134253304 |    134253304 |    134253304 |    134253304 |    134253304 |    134253304 |    134253304 |
sim_elapsed_time                                 1 |            1 |            1 |            1 |            1 |            1 |            1 |            1 |            1 |            1 |            1 |            1 |            1 |            1 |            1 |            1 |            1 |            1 |            1 |            1 |            1 |            1 |            1 |            1 |            1 |            1 |            1 |            1 |            1 |            1 |            1 |            1 |            1 |            1 |            1 |            1 |            1 |            1 |            1 |            1 |            1 |            1 |            3 |            2 |            2 |            3 |            2 |            2 |            2 |            5 |            4 |            5 |            4 |            5 |            4 |            5 |            9 |            9 |            9 |            9 |            9 |            9 |           10 |           18 |           18 |           19 |           18 |           18 |           18 |           19 |           36 |           37 |           36 |           36 |           36 |           37 |           37 |
sim_inst_rate                          378645.0000 |  378645.0000 |  378645.0000 |  378645.0000 |  378645.0000 |  378645.0000 |  378645.0000 |  744355.0000 |  744355.0000 |  744355.0000 |  744355.0000 |  744355.0000 |  744355.0000 |  744355.0000 | 1475493.0000 | 1475493.0000 | 1475493.0000 | 1475493.0000 | 1475493.0000 | 1475493.0000 | 1475493.0000 | 2937766.0000 | 2937766.0000 | 2937766.0000 | 2937766.0000 | 2937766.0000 | 2937766.0000 | 2937766.0000 | 5862310.0000 | 5862310.0000 | 5862310.0000 | 5862310.0000 | 5862310.0000 | 5862310.0000 | 5862310.0000 |11711399.0000 |11711399.0000 |11711399.0000 |11711399.0000 |11711399.0000 |11711399.0000 |11711399.0000 | 7803191.6667 |11704787.5000 |11704787.5000 | 7803191.6667 |11704787.5000 |11704787.5000 |11704787.5000 | 9361185.4000 |11701481.7500 | 9361185.4000 |11701481.7500 | 9361185.4000 |11701481.7500 | 9361185.4000 |10401234.1111 |10401234.1111 |10401234.1111 |10401234.1111 |10401234.1111 |10401234.1111 | 9361110.7000 |10400318.8333 |10400318.8333 | 9852933.6316 |10400318.8333 |10400318.8333 |10400318.8333 | 9852933.6316 |10399860.9722 |10118783.6486 |10399860.9722 |10399860.9722 |10399860.9722 |10118783.6486 |10118783.6486 |
sim_num_branches                              9241 |         9241 |         9241 |         9241 |         9241 |         9241 |         9241 |        17473 |        17473 |        17473 |        17473 |        17473 |        17473 |        17473 |        33857 |        33857 |        33857 |        33857 |        33857 |        33857 |        33857 |        66625 |        66625 |        66625 |        66625 |        66625 |        66625 |        66625 |       132161 |       132161 |       132161 |       132161 |       132161 |       132161 |       132161 |       263233 |       263233 |       263233 |       263233 |       263233 |       263233 |       263233 |       525377 |       525377 |       525377 |       525377 |       525377 |       525377 |       525377 |      1049665 |      1049665 |      1049665 |      1049665 |      1049665 |      1049665 |      1049665 |      2099034 |      2099034 |      2099034 |      2099034 |      2099034 |      2099034 |      2099034 |      4196957 |      4196957 |      4196957 |      4196957 |      4196957 |      4196957 |      4196957 |      8392800 |      8392800 |      8392800 |      8392800 |      8392800 |      8392800 |      8392800 |
sim_IPB                                    40.9745 |      40.9745 |      40.9745 |      40.9745 |      40.9745 |      40.9745 |      40.9745 |      42.6003 |      42.6003 |      42.6003 |      42.6003 |      42.6003 |      42.6003 |      42.6003 |      43.5801 |      43.5801 |      43.5801 |      43.5801 |      43.5801 |      43.5801 |      43.5801 |      44.0940 |      44.0940 |      44.0940 |      44.0940 |      44.0940 |      44.0940 |      44.0940 |      44.3573 |      44.3573 |      44.3573 |      44.3573 |      44.3573 |      44.3573 |      44.3573 |      44.4906 |      44.4906 |      44.4906 |      44.4906 |      44.4906 |      44.4906 |      44.4906 |      44.5577 |      44.5577 |      44.5577 |      44.5577 |      44.5577 |      44.5577 |      44.5577 |      44.5913 |      44.5913 |      44.5913 |      44.5913 |      44.5913 |      44.5913 |      44.5913 |      44.5972 |      44.5972 |      44.5972 |      44.5972 |      44.5972 |      44.5972 |      44.5972 |      44.6051 |      44.6051 |      44.6051 |      44.6051 |      44.6051 |      44.6051 |      44.6051 |      44.6091 |      44.6091 |      44.6091 |      44.6091 |      44.6091 |      44.6091 |      44.6091 |
bpred_bimod.lookups                           9241 |         9241 |         9241 |xxxxxxxxxxxxx |xxxxxxxxxxxxx |xxxxxxxxxxxxx |xxxxxxxxxxxxx |        17473 |        17473 |        17473 |xxxxxxxxxxxxx |xxxxxxxxxxxxx |xxxxxxxxxxxxx |xxxxxxxxxxxxx |        33857 |        33857 |        33857 |xxxxxxxxxxxxx |xxxxxxxxxxxxx |xxxxxxxxxxxxx |xxxxxxxxxxxxx |        66625 |        66625 |        66625 |xxxxxxxxxxxxx |xxxxxxxxxxxxx |xxxxxxxxxxxxx |xxxxxxxxxxxxx |       132161 |       132161 |       132161 |xxxxxxxxxxxxx |xxxxxxxxxxxxx |xxxxxxxxxxxxx |xxxxxxxxxxxxx |       263233 |       263233 |       263233 |xxxxxxxxxxxxx |xxxxxxxxxxxxx |xxxxxxxxxxxxx |xxxxxxxxxxxxx |       525377 |       525377 |       525377 |xxxxxxxxxxxxx |xxxxxxxxxxxxx |xxxxxxxxxxxxx |xxxxxxxxxxxxx |      1049665 |      1049665 |      1049665 |xxxxxxxxxxxxx |xxxxxxxxxxxxx |xxxxxxxxxxxxx |xxxxxxxxxxxxx |      2099034 |      2099034 |      2099034 |xxxxxxxxxxxxx |xxxxxxxxxxxxx |xxxxxxxxxxxxx |xxxxxxxxxxxxx |      4196957 |      4196957 |      4196957 |xxxxxxxxxxxxx |xxxxxxxxxxxxx |xxxxxxxxxxxxx |xxxxxxxxxxxxx |      8392800 |      8392800 |      8392800 |
bpred_bimod.updates                           9241 |         9241 |         9241 |xxxxxxxxxxxxx |xxxxxxxxxxxxx |xxxxxxxxxxxxx |xxxxxxxxxxxxx |        17473 |        17473 |        17473 |xxxxxxxxxxxxx |xxxxxxxxxxxxx |xxxxxxxxxxxxx |xxxxxxxxxxxxx |        33857 |        33857 |        33857 |xxxxxxxxxxxxx |xxxxxxxxxxxxx |xxxxxxxxxxxxx |xxxxxxxxxxxxx |        66625 |        66625 |        66625 |xxxxxxxxxxxxx |xxxxxxxxxxxxx |xxxxxxxxxxxxx |xxxxxxxxxxxxx |       132161 |       132161 |       132161 |xxxxxxxxxxxxx |xxxxxxxxxxxxx |xxxxxxxxxxxxx |xxxxxxxxxxxxx |       263233 |       263233 |       263233 |xxxxxxxxxxxxx |xxxxxxxxxxxxx |xxxxxxxxxxxxx |xxxxxxxxxxxxx |       525377 |       525377 |       525377 |xxxxxxxxxxxxx |xxxxxxxxxxxxx |xxxxxxxxxxxxx |xxxxxxxxxxxxx |      1049665 |      1049665 |      1049665 |xxxxxxxxxxxxx |xxxxxxxxxxxxx |xxxxxxxxxxxxx |xxxxxxxxxxxxx |      2099034 |      2099034 |      2099034 |xxxxxxxxxxxxx |xxxxxxxxxxxxx |xxxxxxxxxxxxx |xxxxxxxxxxxxx |      4196957 |      4196957 |      4196957 |xxxxxxxxxxxxx |xxxxxxxxxxxxx |xxxxxxxxxxxxx |xxxxxxxxxxxxx |      8392800 |      8392800 |      8392800 |
bpred_bimod.addr_hits                         9039 |         9041 |         9041 |xxxxxxxxxxxxx |xxxxxxxxxxxxx |xxxxxxxxxxxxx |xxxxxxxxxxxxx |        17264 |        17266 |        17266 |xxxxxxxxxxxxx |xxxxxxxxxxxxx |xxxxxxxxxxxxx |xxxxxxxxxxxxx |        33649 |        33651 |        33651 |xxxxxxxxxxxxx |xxxxxxxxxxxxx |xxxxxxxxxxxxx |xxxxxxxxxxxxx |        66417 |        66419 |        66419 |xxxxxxxxxxxxx |xxxxxxxxxxxxx |xxxxxxxxxxxxx |xxxxxxxxxxxxx |       131953 |       131955 |       131955 |xxxxxxxxxxxxx |xxxxxxxxxxxxx |xxxxxxxxxxxxx |xxxxxxxxxxxxx |       263025 |       263027 |       263027 |xxxxxxxxxxxxx |xxxxxxxxxxxxx |xxxxxxxxxxxxx |xxxxxxxxxxxxx |       525169 |       525171 |       525171 |xxxxxxxxxxxxx |xxxxxxxxxxxxx |xxxxxxxxxxxxx |xxxxxxxxxxxxx |      1049457 |      1049459 |      1049459 |xxxxxxxxxxxxx |xxxxxxxxxxxxx |xxxxxxxxxxxxx |xxxxxxxxxxxxx |      2098803 |      2098804 |      2098803 |xxxxxxxxxxxxx |xxxxxxxxxxxxx |xxxxxxxxxxxxx |xxxxxxxxxxxxx |      4196726 |      4196727 |      4196726 |xxxxxxxxxxxxx |xxxxxxxxxxxxx |xxxxxxxxxxxxx |xxxxxxxxxxxxx |      8392569 |      8392570 |      8392569 |
bpred_bimod.dir_hits                          9138 |         9142 |         9142 |xxxxxxxxxxxxx |xxxxxxxxxxxxx |xxxxxxxxxxxxx |xxxxxxxxxxxxx |        17367 |        17371 |        17371 |xxxxxxxxxxxxx |xxxxxxxxxxxxx |xxxxxxxxxxxxx |xxxxxxxxxxxxx |        33753 |        33756 |        33756 |xxxxxxxxxxxxx |xxxxxxxxxxxxx |xxxxxxxxxxxxx |xxxxxxxxxxxxx |        66520 |        66523 |        66523 |xxxxxxxxxxxxx |xxxxxxxxxxxxx |xxxxxxxxxxxxx |xxxxxxxxxxxxx |       132056 |       132059 |       132059 |xxxxxxxxxxxxx |xxxxxxxxxxxxx |xxxxxxxxxxxxx |xxxxxxxxxxxxx |       263129 |       263132 |       263132 |xxxxxxxxxxxxx |xxxxxxxxxxxxx |xxxxxxxxxxxxx |xxxxxxxxxxxxx |       525273 |       525276 |       525276 |xxxxxxxxxxxxx |xxxxxxxxxxxxx |xxxxxxxxxxxxx |xxxxxxxxxxxxx |      1049561 |      1049564 |      1049564 |xxxxxxxxxxxxx |xxxxxxxxxxxxx |xxxxxxxxxxxxx |xxxxxxxxxxxxx |      2098918 |      2098919 |      2098919 |xxxxxxxxxxxxx |xxxxxxxxxxxxx |xxxxxxxxxxxxx |xxxxxxxxxxxxx |      4196841 |      4196842 |      4196842 |xxxxxxxxxxxxx |xxxxxxxxxxxxx |xxxxxxxxxxxxx |xxxxxxxxxxxxx |      8392684 |      8392685 |      8392685 |
bpred_bimod.misses                             103 |           99 |           99 |xxxxxxxxxxxxx |xxxxxxxxxxxxx |xxxxxxxxxxxxx |xxxxxxxxxxxxx |          106 |          102 |          102 |xxxxxxxxxxxxx |xxxxxxxxxxxxx |xxxxxxxxxxxxx |xxxxxxxxxxxxx |          104 |          101 |          101 |xxxxxxxxxxxxx |xxxxxxxxxxxxx |xxxxxxxxxxxxx |xxxxxxxxxxxxx |          105 |          102 |          102 |xxxxxxxxxxxxx |xxxxxxxxxxxxx |xxxxxxxxxxxxx |xxxxxxxxxxxxx |          105 |          102 |          102 |xxxxxxxxxxxxx |xxxxxxxxxxxxx |xxxxxxxxxxxxx |xxxxxxxxxxxxx |          104 |          101 |          101 |xxxxxxxxxxxxx |xxxxxxxxxxxxx |xxxxxxxxxxxxx |xxxxxxxxxxxxx |          104 |          101 |          101 |xxxxxxxxxxxxx |xxxxxxxxxxxxx |xxxxxxxxxxxxx |xxxxxxxxxxxxx |          104 |          101 |          101 |xxxxxxxxxxxxx |xxxxxxxxxxxxx |xxxxxxxxxxxxx |xxxxxxxxxxxxx |          116 |          115 |          115 |xxxxxxxxxxxxx |xxxxxxxxxxxxx |xxxxxxxxxxxxx |xxxxxxxxxxxxx |          116 |          115 |          115 |xxxxxxxxxxxxx |xxxxxxxxxxxxx |xxxxxxxxxxxxx |xxxxxxxxxxxxx |          116 |          115 |          115 |
bpred_bimod.jr_hits                             61 |           61 |           61 |xxxxxxxxxxxxx |xxxxxxxxxxxxx |xxxxxxxxxxxxx |xxxxxxxxxxxxx |           69 |           69 |           69 |xxxxxxxxxxxxx |xxxxxxxxxxxxx |xxxxxxxxxxxxx |xxxxxxxxxxxxx |           69 |           69 |           69 |xxxxxxxxxxxxx |xxxxxxxxxxxxx |xxxxxxxxxxxxx |xxxxxxxxxxxxx |           69 |           69 |           69 |xxxxxxxxxxxxx |xxxxxxxxxxxxx |xxxxxxxxxxxxx |xxxxxxxxxxxxx |           69 |           69 |           69 |xxxxxxxxxxxxx |xxxxxxxxxxxxx |xxxxxxxxxxxxx |xxxxxxxxxxxxx |           69 |           69 |           69 |xxxxxxxxxxxxx |xxxxxxxxxxxxx |xxxxxxxxxxxxx |xxxxxxxxxxxxx |           69 |           69 |           69 |xxxxxxxxxxxxx |xxxxxxxxxxxxx |xxxxxxxxxxxxx |xxxxxxxxxxxxx |           69 |           69 |           69 |xxxxxxxxxxxxx |xxxxxxxxxxxxx |xxxxxxxxxxxxx |xxxxxxxxxxxxx |           72 |           72 |           72 |xxxxxxxxxxxxx |xxxxxxxxxxxxx |xxxxxxxxxxxxx |xxxxxxxxxxxxx |           72 |           72 |           72 |xxxxxxxxxxxxx |xxxxxxxxxxxxx |xxxxxxxxxxxxx |xxxxxxxxxxxxx |           72 |           72 |           72 |
bpred_bimod.jr_seen                             61 |           61 |           61 |xxxxxxxxxxxxx |xxxxxxxxxxxxx |xxxxxxxxxxxxx |xxxxxxxxxxxxx |           70 |           70 |           70 |xxxxxxxxxxxxx |xxxxxxxxxxxxx |xxxxxxxxxxxxx |xxxxxxxxxxxxx |           70 |           70 |           70 |xxxxxxxxxxxxx |xxxxxxxxxxxxx |xxxxxxxxxxxxx |xxxxxxxxxxxxx |           70 |           70 |           70 |xxxxxxxxxxxxx |xxxxxxxxxxxxx |xxxxxxxxxxxxx |xxxxxxxxxxxxx |           70 |           70 |           70 |xxxxxxxxxxxxx |xxxxxxxxxxxxx |xxxxxxxxxxxxx |xxxxxxxxxxxxx |           70 |           70 |           70 |xxxxxxxxxxxxx |xxxxxxxxxxxxx |xxxxxxxxxxxxx |xxxxxxxxxxxxx |           70 |           70 |           70 |xxxxxxxxxxxxx |xxxxxxxxxxxxx |xxxxxxxxxxxxx |xxxxxxxxxxxxx |           70 |           70 |           70 |xxxxxxxxxxxxx |xxxxxxxxxxxxx |xxxxxxxxxxxxx |xxxxxxxxxxxxx |           73 |           73 |           73 |xxxxxxxxxxxxx |xxxxxxxxxxxxx |xxxxxxxxxxxxx |xxxxxxxxxxxxx |           73 |           73 |           73 |xxxxxxxxxxxxx |xxxxxxxxxxxxx |xxxxxxxxxxxxx |xxxxxxxxxxxxx |           73 |           73 |           73 |
bpred_bimod.jr_non_ras_hits.PP                   0 |            0 |            0 |xxxxxxxxxxxxx |xxxxxxxxxxxxx |xxxxxxxxxxxxx |xxxxxxxxxxxxx |            0 |            0 |            0 |xxxxxxxxxxxxx |xxxxxxxxxxxxx |xxxxxxxxxxxxx |xxxxxxxxxxxxx |            0 |            0 |            0 |xxxxxxxxxxxxx |xxxxxxxxxxxxx |xxxxxxxxxxxxx |xxxxxxxxxxxxx |            0 |            0 |            0 |xxxxxxxxxxxxx |xxxxxxxxxxxxx |xxxxxxxxxxxxx |xxxxxxxxxxxxx |            0 |            0 |            0 |xxxxxxxxxxxxx |xxxxxxxxxxxxx |xxxxxxxxxxxxx |xxxxxxxxxxxxx |            0 |            0 |            0 |xxxxxxxxxxxxx |xxxxxxxxxxxxx |xxxxxxxxxxxxx |xxxxxxxxxxxxx |            0 |            0 |            0 |xxxxxxxxxxxxx |xxxxxxxxxxxxx |xxxxxxxxxxxxx |xxxxxxxxxxxxx |            0 |            0 |            0 |xxxxxxxxxxxxx |xxxxxxxxxxxxx |xxxxxxxxxxxxx |xxxxxxxxxxxxx |            0 |            0 |            0 |xxxxxxxxxxxxx |xxxxxxxxxxxxx |xxxxxxxxxxxxx |xxxxxxxxxxxxx |            0 |            0 |            0 |xxxxxxxxxxxxx |xxxxxxxxxxxxx |xxxxxxxxxxxxx |xxxxxxxxxxxxx |            0 |            0 |            0 |
bpred_bimod.jr_non_ras_seen.PP                   0 |            0 |            0 |xxxxxxxxxxxxx |xxxxxxxxxxxxx |xxxxxxxxxxxxx |xxxxxxxxxxxxx |            0 |            0 |            0 |xxxxxxxxxxxxx |xxxxxxxxxxxxx |xxxxxxxxxxxxx |xxxxxxxxxxxxx |            0 |            0 |            0 |xxxxxxxxxxxxx |xxxxxxxxxxxxx |xxxxxxxxxxxxx |xxxxxxxxxxxxx |            0 |            0 |            0 |xxxxxxxxxxxxx |xxxxxxxxxxxxx |xxxxxxxxxxxxx |xxxxxxxxxxxxx |            0 |            0 |            0 |xxxxxxxxxxxxx |xxxxxxxxxxxxx |xxxxxxxxxxxxx |xxxxxxxxxxxxx |            0 |            0 |            0 |xxxxxxxxxxxxx |xxxxxxxxxxxxx |xxxxxxxxxxxxx |xxxxxxxxxxxxx |            0 |            0 |            0 |xxxxxxxxxxxxx |xxxxxxxxxxxxx |xxxxxxxxxxxxx |xxxxxxxxxxxxx |            0 |            0 |            0 |xxxxxxxxxxxxx |xxxxxxxxxxxxx |xxxxxxxxxxxxx |xxxxxxxxxxxxx |            1 |            1 |            1 |xxxxxxxxxxxxx |xxxxxxxxxxxxx |xxxxxxxxxxxxx |xxxxxxxxxxxxx |            1 |            1 |            1 |xxxxxxxxxxxxx |xxxxxxxxxxxxx |xxxxxxxxxxxxx |xxxxxxxxxxxxx |            1 |            1 |            1 |
bpred_bimod.bpred_addr_rate                 0.9781 |       0.9784 |       0.9784 |xxxxxxxxxxxxx |xxxxxxxxxxxxx |xxxxxxxxxxxxx |xxxxxxxxxxxxx |       0.9880 |       0.9882 |       0.9882 |xxxxxxxxxxxxx |xxxxxxxxxxxxx |xxxxxxxxxxxxx |xxxxxxxxxxxxx |       0.9939 |       0.9939 |       0.9939 |xxxxxxxxxxxxx |xxxxxxxxxxxxx |xxxxxxxxxxxxx |xxxxxxxxxxxxx |       0.9969 |       0.9969 |       0.9969 |xxxxxxxxxxxxx |xxxxxxxxxxxxx |xxxxxxxxxxxxx |xxxxxxxxxxxxx |       0.9984 |       0.9984 |       0.9984 |xxxxxxxxxxxxx |xxxxxxxxxxxxx |xxxxxxxxxxxxx |xxxxxxxxxxxxx |       0.9992 |       0.9992 |       0.9992 |xxxxxxxxxxxxx |xxxxxxxxxxxxx |xxxxxxxxxxxxx |xxxxxxxxxxxxx |       0.9996 |       0.9996 |       0.9996 |xxxxxxxxxxxxx |xxxxxxxxxxxxx |xxxxxxxxxxxxx |xxxxxxxxxxxxx |       0.9998 |       0.9998 |       0.9998 |xxxxxxxxxxxxx |xxxxxxxxxxxxx |xxxxxxxxxxxxx |xxxxxxxxxxxxx |       0.9999 |       0.9999 |       0.9999 |xxxxxxxxxxxxx |xxxxxxxxxxxxx |xxxxxxxxxxxxx |xxxxxxxxxxxxx |       0.9999 |       0.9999 |       0.9999 |xxxxxxxxxxxxx |xxxxxxxxxxxxx |xxxxxxxxxxxxx |xxxxxxxxxxxxx |       1.0000 |       1.0000 |       1.0000 |
bpred_bimod.bpred_dir_rate                  0.9889 |       0.9893 |       0.9893 |xxxxxxxxxxxxx |xxxxxxxxxxxxx |xxxxxxxxxxxxx |xxxxxxxxxxxxx |       0.9939 |       0.9942 |       0.9942 |xxxxxxxxxxxxx |xxxxxxxxxxxxx |xxxxxxxxxxxxx |xxxxxxxxxxxxx |       0.9969 |       0.9970 |       0.9970 |xxxxxxxxxxxxx |xxxxxxxxxxxxx |xxxxxxxxxxxxx |xxxxxxxxxxxxx |       0.9984 |       0.9985 |       0.9985 |xxxxxxxxxxxxx |xxxxxxxxxxxxx |xxxxxxxxxxxxx |xxxxxxxxxxxxx |       0.9992 |       0.9992 |       0.9992 |xxxxxxxxxxxxx |xxxxxxxxxxxxx |xxxxxxxxxxxxx |xxxxxxxxxxxxx |       0.9996 |       0.9996 |       0.9996 |xxxxxxxxxxxxx |xxxxxxxxxxxxx |xxxxxxxxxxxxx |xxxxxxxxxxxxx |       0.9998 |       0.9998 |       0.9998 |xxxxxxxxxxxxx |xxxxxxxxxxxxx |xxxxxxxxxxxxx |xxxxxxxxxxxxx |       0.9999 |       0.9999 |       0.9999 |xxxxxxxxxxxxx |xxxxxxxxxxxxx |xxxxxxxxxxxxx |xxxxxxxxxxxxx |       0.9999 |       0.9999 |       0.9999 |xxxxxxxxxxxxx |xxxxxxxxxxxxx |xxxxxxxxxxxxx |xxxxxxxxxxxxx |       1.0000 |       1.0000 |       1.0000 |xxxxxxxxxxxxx |xxxxxxxxxxxxx |xxxxxxxxxxxxx |xxxxxxxxxxxxx |       1.0000 |       1.0000 |       1.0000 |
bpred_bimod.bpred_jr_rate                   1.0000 |       1.0000 |       1.0000 |xxxxxxxxxxxxx |xxxxxxxxxxxxx |xxxxxxxxxxxxx |xxxxxxxxxxxxx |       0.9857 |       0.9857 |       0.9857 |xxxxxxxxxxxxx |xxxxxxxxxxxxx |xxxxxxxxxxxxx |xxxxxxxxxxxxx |       0.9857 |       0.9857 |       0.9857 |xxxxxxxxxxxxx |xxxxxxxxxxxxx |xxxxxxxxxxxxx |xxxxxxxxxxxxx |       0.9857 |       0.9857 |       0.9857 |xxxxxxxxxxxxx |xxxxxxxxxxxxx |xxxxxxxxxxxxx |xxxxxxxxxxxxx |       0.9857 |       0.9857 |       0.9857 |xxxxxxxxxxxxx |xxxxxxxxxxxxx |xxxxxxxxxxxxx |xxxxxxxxxxxxx |       0.9857 |       0.9857 |       0.9857 |xxxxxxxxxxxxx |xxxxxxxxxxxxx |xxxxxxxxxxxxx |xxxxxxxxxxxxx |       0.9857 |       0.9857 |       0.9857 |xxxxxxxxxxxxx |xxxxxxxxxxxxx |xxxxxxxxxxxxx |xxxxxxxxxxxxx |       0.9857 |       0.9857 |       0.9857 |xxxxxxxxxxxxx |xxxxxxxxxxxxx |xxxxxxxxxxxxx |xxxxxxxxxxxxx |       0.9863 |       0.9863 |       0.9863 |xxxxxxxxxxxxx |xxxxxxxxxxxxx |xxxxxxxxxxxxx |xxxxxxxxxxxxx |       0.9863 |       0.9863 |       0.9863 |xxxxxxxxxxxxx |xxxxxxxxxxxxx |xxxxxxxxxxxxx |xxxxxxxxxxxxx |       0.9863 |       0.9863 |       0.9863 |
bpred_bimod.bpred_jr_non_ras_rate.PP       <error: |      <error: |      <error: |xxxxxxxxxxxxx |xxxxxxxxxxxxx |xxxxxxxxxxxxx |xxxxxxxxxxxxx |      <error: |      <error: |      <error: |xxxxxxxxxxxxx |xxxxxxxxxxxxx |xxxxxxxxxxxxx |xxxxxxxxxxxxx |      <error: |      <error: |      <error: |xxxxxxxxxxxxx |xxxxxxxxxxxxx |xxxxxxxxxxxxx |xxxxxxxxxxxxx |      <error: |      <error: |      <error: |xxxxxxxxxxxxx |xxxxxxxxxxxxx |xxxxxxxxxxxxx |xxxxxxxxxxxxx |      <error: |      <error: |      <error: |xxxxxxxxxxxxx |xxxxxxxxxxxxx |xxxxxxxxxxxxx |xxxxxxxxxxxxx |      <error: |      <error: |      <error: |xxxxxxxxxxxxx |xxxxxxxxxxxxx |xxxxxxxxxxxxx |xxxxxxxxxxxxx |      <error: |      <error: |      <error: |xxxxxxxxxxxxx |xxxxxxxxxxxxx |xxxxxxxxxxxxx |xxxxxxxxxxxxx |      <error: |      <error: |      <error: |xxxxxxxxxxxxx |xxxxxxxxxxxxx |xxxxxxxxxxxxx |xxxxxxxxxxxxx |       0.0000 |       0.0000 |       0.0000 |xxxxxxxxxxxxx |xxxxxxxxxxxxx |xxxxxxxxxxxxx |xxxxxxxxxxxxx |       0.0000 |       0.0000 |       0.0000 |xxxxxxxxxxxxx |xxxxxxxxxxxxx |xxxxxxxxxxxxx |xxxxxxxxxxxxx |       0.0000 |       0.0000 |       0.0000 |
bpred_bimod.retstack_pushes                     63 |           63 |           63 |xxxxxxxxxxxxx |xxxxxxxxxxxxx |xxxxxxxxxxxxx |xxxxxxxxxxxxx |           72 |           72 |           72 |xxxxxxxxxxxxx |xxxxxxxxxxxxx |xxxxxxxxxxxxx |xxxxxxxxxxxxx |           72 |           72 |           72 |xxxxxxxxxxxxx |xxxxxxxxxxxxx |xxxxxxxxxxxxx |xxxxxxxxxxxxx |           72 |           72 |           72 |xxxxxxxxxxxxx |xxxxxxxxxxxxx |xxxxxxxxxxxxx |xxxxxxxxxxxxx |           72 |           72 |           72 |xxxxxxxxxxxxx |xxxxxxxxxxxxx |xxxxxxxxxxxxx |xxxxxxxxxxxxx |           72 |           72 |           72 |xxxxxxxxxxxxx |xxxxxxxxxxxxx |xxxxxxxxxxxxx |xxxxxxxxxxxxx |           72 |           72 |           72 |xxxxxxxxxxxxx |xxxxxxxxxxxxx |xxxxxxxxxxxxx |xxxxxxxxxxxxx |           72 |           72 |           72 |xxxxxxxxxxxxx |xxxxxxxxxxxxx |xxxxxxxxxxxxx |xxxxxxxxxxxxx |           74 |           74 |           74 |xxxxxxxxxxxxx |xxxxxxxxxxxxx |xxxxxxxxxxxxx |xxxxxxxxxxxxx |           74 |           74 |           74 |xxxxxxxxxxxxx |xxxxxxxxxxxxx |xxxxxxxxxxxxx |xxxxxxxxxxxxx |           74 |           74 |           74 |
bpred_bimod.retstack_pops                       61 |           61 |           61 |xxxxxxxxxxxxx |xxxxxxxxxxxxx |xxxxxxxxxxxxx |xxxxxxxxxxxxx |           70 |           70 |           70 |xxxxxxxxxxxxx |xxxxxxxxxxxxx |xxxxxxxxxxxxx |xxxxxxxxxxxxx |           70 |           70 |           70 |xxxxxxxxxxxxx |xxxxxxxxxxxxx |xxxxxxxxxxxxx |xxxxxxxxxxxxx |           70 |           70 |           70 |xxxxxxxxxxxxx |xxxxxxxxxxxxx |xxxxxxxxxxxxx |xxxxxxxxxxxxx |           70 |           70 |           70 |xxxxxxxxxxxxx |xxxxxxxxxxxxx |xxxxxxxxxxxxx |xxxxxxxxxxxxx |           70 |           70 |           70 |xxxxxxxxxxxxx |xxxxxxxxxxxxx |xxxxxxxxxxxxx |xxxxxxxxxxxxx |           70 |           70 |           70 |xxxxxxxxxxxxx |xxxxxxxxxxxxx |xxxxxxxxxxxxx |xxxxxxxxxxxxx |           70 |           70 |           70 |xxxxxxxxxxxxx |xxxxxxxxxxxxx |xxxxxxxxxxxxx |xxxxxxxxxxxxx |           72 |           72 |           72 |xxxxxxxxxxxxx |xxxxxxxxxxxxx |xxxxxxxxxxxxx |xxxxxxxxxxxxx |           72 |           72 |           72 |xxxxxxxxxxxxx |xxxxxxxxxxxxx |xxxxxxxxxxxxx |xxxxxxxxxxxxx |           72 |           72 |           72 |
bpred_bimod.used_ras.PP                         61 |           61 |           61 |xxxxxxxxxxxxx |xxxxxxxxxxxxx |xxxxxxxxxxxxx |xxxxxxxxxxxxx |           70 |           70 |           70 |xxxxxxxxxxxxx |xxxxxxxxxxxxx |xxxxxxxxxxxxx |xxxxxxxxxxxxx |           70 |           70 |           70 |xxxxxxxxxxxxx |xxxxxxxxxxxxx |xxxxxxxxxxxxx |xxxxxxxxxxxxx |           70 |           70 |           70 |xxxxxxxxxxxxx |xxxxxxxxxxxxx |xxxxxxxxxxxxx |xxxxxxxxxxxxx |           70 |           70 |           70 |xxxxxxxxxxxxx |xxxxxxxxxxxxx |xxxxxxxxxxxxx |xxxxxxxxxxxxx |           70 |           70 |           70 |xxxxxxxxxxxxx |xxxxxxxxxxxxx |xxxxxxxxxxxxx |xxxxxxxxxxxxx |           70 |           70 |           70 |xxxxxxxxxxxxx |xxxxxxxxxxxxx |xxxxxxxxxxxxx |xxxxxxxxxxxxx |           70 |           70 |           70 |xxxxxxxxxxxxx |xxxxxxxxxxxxx |xxxxxxxxxxxxx |xxxxxxxxxxxxx |           72 |           72 |           72 |xxxxxxxxxxxxx |xxxxxxxxxxxxx |xxxxxxxxxxxxx |xxxxxxxxxxxxx |           72 |           72 |           72 |xxxxxxxxxxxxx |xxxxxxxxxxxxx |xxxxxxxxxxxxx |xxxxxxxxxxxxx |           72 |           72 |           72 |
bpred_bimod.ras_hits.PP                         61 |           61 |           61 |xxxxxxxxxxxxx |xxxxxxxxxxxxx |xxxxxxxxxxxxx |xxxxxxxxxxxxx |           69 |           69 |           69 |xxxxxxxxxxxxx |xxxxxxxxxxxxx |xxxxxxxxxxxxx |xxxxxxxxxxxxx |           69 |           69 |           69 |xxxxxxxxxxxxx |xxxxxxxxxxxxx |xxxxxxxxxxxxx |xxxxxxxxxxxxx |           69 |           69 |           69 |xxxxxxxxxxxxx |xxxxxxxxxxxxx |xxxxxxxxxxxxx |xxxxxxxxxxxxx |           69 |           69 |           69 |xxxxxxxxxxxxx |xxxxxxxxxxxxx |xxxxxxxxxxxxx |xxxxxxxxxxxxx |           69 |           69 |           69 |xxxxxxxxxxxxx |xxxxxxxxxxxxx |xxxxxxxxxxxxx |xxxxxxxxxxxxx |           69 |           69 |           69 |xxxxxxxxxxxxx |xxxxxxxxxxxxx |xxxxxxxxxxxxx |xxxxxxxxxxxxx |           69 |           69 |           69 |xxxxxxxxxxxxx |xxxxxxxxxxxxx |xxxxxxxxxxxxx |xxxxxxxxxxxxx |           72 |           72 |           72 |xxxxxxxxxxxxx |xxxxxxxxxxxxx |xxxxxxxxxxxxx |xxxxxxxxxxxxx |           72 |           72 |           72 |xxxxxxxxxxxxx |xxxxxxxxxxxxx |xxxxxxxxxxxxx |xxxxxxxxxxxxx |           72 |           72 |           72 |
bpred_bimod.ras_rate.PP                     1.0000 |       1.0000 |       1.0000 |xxxxxxxxxxxxx |xxxxxxxxxxxxx |xxxxxxxxxxxxx |xxxxxxxxxxxxx |       0.9857 |       0.9857 |       0.9857 |xxxxxxxxxxxxx |xxxxxxxxxxxxx |xxxxxxxxxxxxx |xxxxxxxxxxxxx |       0.9857 |       0.9857 |       0.9857 |xxxxxxxxxxxxx |xxxxxxxxxxxxx |xxxxxxxxxxxxx |xxxxxxxxxxxxx |       0.9857 |       0.9857 |       0.9857 |xxxxxxxxxxxxx |xxxxxxxxxxxxx |xxxxxxxxxxxxx |xxxxxxxxxxxxx |       0.9857 |       0.9857 |       0.9857 |xxxxxxxxxxxxx |xxxxxxxxxxxxx |xxxxxxxxxxxxx |xxxxxxxxxxxxx |       0.9857 |       0.9857 |       0.9857 |xxxxxxxxxxxxx |xxxxxxxxxxxxx |xxxxxxxxxxxxx |xxxxxxxxxxxxx |       0.9857 |       0.9857 |       0.9857 |xxxxxxxxxxxxx |xxxxxxxxxxxxx |xxxxxxxxxxxxx |xxxxxxxxxxxxx |       0.9857 |       0.9857 |       0.9857 |xxxxxxxxxxxxx |xxxxxxxxxxxxx |xxxxxxxxxxxxx |xxxxxxxxxxxxx |       1.0000 |       1.0000 |       1.0000 |xxxxxxxxxxxxx |xxxxxxxxxxxxx |xxxxxxxxxxxxx |xxxxxxxxxxxxx |       1.0000 |       1.0000 |       1.0000 |xxxxxxxxxxxxx |xxxxxxxxxxxxx |xxxxxxxxxxxxx |xxxxxxxxxxxxx |       1.0000 |       1.0000 |       1.0000 |
bpred_2lev.lookups                   xxxxxxxxxxxxx |xxxxxxxxxxxxx |xxxxxxxxxxxxx |         9241 |         9241 |         9241 |         9241 |xxxxxxxxxxxxx |xxxxxxxxxxxxx |xxxxxxxxxxxxx |        17473 |        17473 |        17473 |        17473 |xxxxxxxxxxxxx |xxxxxxxxxxxxx |xxxxxxxxxxxxx |        33857 |        33857 |        33857 |        33857 |xxxxxxxxxxxxx |xxxxxxxxxxxxx |xxxxxxxxxxxxx |        66625 |        66625 |        66625 |        66625 |xxxxxxxxxxxxx |xxxxxxxxxxxxx |xxxxxxxxxxxxx |       132161 |       132161 |       132161 |       132161 |xxxxxxxxxxxxx |xxxxxxxxxxxxx |xxxxxxxxxxxxx |       263233 |       263233 |       263233 |       263233 |xxxxxxxxxxxxx |xxxxxxxxxxxxx |xxxxxxxxxxxxx |       525377 |       525377 |       525377 |       525377 |xxxxxxxxxxxxx |xxxxxxxxxxxxx |xxxxxxxxxxxxx |      1049665 |      1049665 |      1049665 |      1049665 |xxxxxxxxxxxxx |xxxxxxxxxxxxx |xxxxxxxxxxxxx |      2099034 |      2099034 |      2099034 |      2099034 |xxxxxxxxxxxxx |xxxxxxxxxxxxx |xxxxxxxxxxxxx |      4196957 |      4196957 |      4196957 |      4196957 |xxxxxxxxxxxxx |xxxxxxxxxxxxx |xxxxxxxxxxxxx |      8392800 |      8392800 |      8392800 |      8392800 |
[...]
bpred_2lev.retstack_pushes           xxxxxxxxxxxxx |xxxxxxxxxxxxx |xxxxxxxxxxxxx |           63 |           63 |           63 |           63 |xxxxxxxxxxxxx |xxxxxxxxxxxxx |xxxxxxxxxxxxx |           72 |           72 |           72 |           72 |xxxxxxxxxxxxx |xxxxxxxxxxxxx |xxxxxxxxxxxxx |           72 |           72 |           72 |           72 |xxxxxxxxxxxxx |xxxxxxxxxxxxx |xxxxxxxxxxxxx |           72 |           72 |           72 |           72 |xxxxxxxxxxxxx |xxxxxxxxxxxxx |xxxxxxxxxxxxx |           72 |           72 |           72 |           72 |xxxxxxxxxxxxx |xxxxxxxxxxxxx |xxxxxxxxxxxxx |           72 |           72 |           72 |           72 |xxxxxxxxxxxxx |xxxxxxxxxxxxx |xxxxxxxxxxxxx |           72 |           72 |           72 |           72 |xxxxxxxxxxxxx |xxxxxxxxxxxxx |xxxxxxxxxxxxx |           72 |           72 |           72 |           72 |xxxxxxxxxxxxx |xxxxxxxxxxxxx |xxxxxxxxxxxxx |           74 |           74 |           74 |           74 |xxxxxxxxxxxxx |xxxxxxxxxxxxx |xxxxxxxxxxxxx |           74 |           74 |           74 |           74 |xxxxxxxxxxxxx |xxxxxxxxxxxxx |xxxxxxxxxxxxx |           74 |           74 |           74 |           74 |
bpred_2lev.retstack_pops             xxxxxxxxxxxxx |xxxxxxxxxxxxx |xxxxxxxxxxxxx |           61 |           61 |           61 |           61 |xxxxxxxxxxxxx |xxxxxxxxxxxxx |xxxxxxxxxxxxx |           70 |           70 |           70 |           70 |xxxxxxxxxxxxx |xxxxxxxxxxxxx |xxxxxxxxxxxxx |           70 |           70 |           70 |           70 |xxxxxxxxxxxxx |xxxxxxxxxxxxx |xxxxxxxxxxxxx |           70 |           70 |           70 |           70 |xxxxxxxxxxxxx |xxxxxxxxxxxxx |xxxxxxxxxxxxx |           70 |           70 |           70 |           70 |xxxxxxxxxxxxx |xxxxxxxxxxxxx |xxxxxxxxxxxxx |           70 |           70 |           70 |           70 |xxxxxxxxxxxxx |xxxxxxxxxxxxx |xxxxxxxxxxxxx |           70 |           70 |           70 |           70 |xxxxxxxxxxxxx |xxxxxxxxxxxxx |xxxxxxxxxxxxx |           70 |           70 |           70 |           70 |xxxxxxxxxxxxx |xxxxxxxxxxxxx |xxxxxxxxxxxxx |           72 |           72 |           72 |           72 |xxxxxxxxxxxxx |xxxxxxxxxxxxx |xxxxxxxxxxxxx |           72 |           72 |           72 |           72 |xxxxxxxxxxxxx |xxxxxxxxxxxxx |xxxxxxxxxxxxx |           72 |           72 |           72 |           72 |
bpred_2lev.used_ras.PP               xxxxxxxxxxxxx |xxxxxxxxxxxxx |xxxxxxxxxxxxx |           61 |           61 |           61 |           61 |xxxxxxxxxxxxx |xxxxxxxxxxxxx |xxxxxxxxxxxxx |           70 |           70 |           70 |           70 |xxxxxxxxxxxxx |xxxxxxxxxxxxx |xxxxxxxxxxxxx |           70 |           70 |           70 |           70 |xxxxxxxxxxxxx |xxxxxxxxxxxxx |xxxxxxxxxxxxx |           70 |           70 |           70 |           70 |xxxxxxxxxxxxx |xxxxxxxxxxxxx |xxxxxxxxxxxxx |           70 |           70 |           70 |           70 |xxxxxxxxxxxxx |xxxxxxxxxxxxx |xxxxxxxxxxxxx |           70 |           70 |           70 |           70 |xxxxxxxxxxxxx |xxxxxxxxxxxxx |xxxxxxxxxxxxx |           70 |           70 |           70 |           70 |xxxxxxxxxxxxx |xxxxxxxxxxxxx |xxxxxxxxxxxxx |           70 |           70 |           70 |           70 |xxxxxxxxxxxxx |xxxxxxxxxxxxx |xxxxxxxxxxxxx |           72 |           72 |           72 |           72 |xxxxxxxxxxxxx |xxxxxxxxxxxxx |xxxxxxxxxxxxx |           72 |           72 |           72 |           72 |xxxxxxxxxxxxx |xxxxxxxxxxxxx |xxxxxxxxxxxxx |           72 |           72 |           72 |           72 |
bpred_2lev.ras_hits.PP               xxxxxxxxxxxxx |xxxxxxxxxxxxx |xxxxxxxxxxxxx |           61 |           61 |           61 |           61 |xxxxxxxxxxxxx |xxxxxxxxxxxxx |xxxxxxxxxxxxx |           69 |           69 |           69 |           69 |xxxxxxxxxxxxx |xxxxxxxxxxxxx |xxxxxxxxxxxxx |           69 |           69 |           69 |           69 |xxxxxxxxxxxxx |xxxxxxxxxxxxx |xxxxxxxxxxxxx |           69 |           69 |           69 |           69 |xxxxxxxxxxxxx |xxxxxxxxxxxxx |xxxxxxxxxxxxx |           69 |           69 |           69 |           69 |xxxxxxxxxxxxx |xxxxxxxxxxxxx |xxxxxxxxxxxxx |           69 |           69 |           69 |           69 |xxxxxxxxxxxxx |xxxxxxxxxxxxx |xxxxxxxxxxxxx |           69 |           69 |           69 |           69 |xxxxxxxxxxxxx |xxxxxxxxxxxxx |xxxxxxxxxxxxx |           69 |           69 |           69 |           69 |xxxxxxxxxxxxx |xxxxxxxxxxxxx |xxxxxxxxxxxxx |           72 |           72 |           72 |           72 |xxxxxxxxxxxxx |xxxxxxxxxxxxx |xxxxxxxxxxxxx |           72 |           72 |           72 |           72 |xxxxxxxxxxxxx |xxxxxxxxxxxxx |xxxxxxxxxxxxx |           72 |           72 |           72 |           72 |
bpred_2lev.ras_rate.PP               xxxxxxxxxxxxx |xxxxxxxxxxxxx |xxxxxxxxxxxxx |       1.0000 |       1.0000 |       1.0000 |       1.0000 |xxxxxxxxxxxxx |xxxxxxxxxxxxx |xxxxxxxxxxxxx |       0.9857 |       0.9857 |       0.9857 |       0.9857 |xxxxxxxxxxxxx |xxxxxxxxxxxxx |xxxxxxxxxxxxx |       0.9857 |       0.9857 |       0.9857 |       0.9857 |xxxxxxxxxxxxx |xxxxxxxxxxxxx |xxxxxxxxxxxxx |       0.9857 |       0.9857 |       0.9857 |       0.9857 |xxxxxxxxxxxxx |xxxxxxxxxxxxx |xxxxxxxxxxxxx |       0.9857 |       0.9857 |       0.9857 |       0.9857 |xxxxxxxxxxxxx |xxxxxxxxxxxxx |xxxxxxxxxxxxx |       0.9857 |       0.9857 |       0.9857 |       0.9857 |xxxxxxxxxxxxx |xxxxxxxxxxxxx |xxxxxxxxxxxxx |       0.9857 |       0.9857 |       0.9857 |       0.9857 |xxxxxxxxxxxxx |xxxxxxxxxxxxx |xxxxxxxxxxxxx |       0.9857 |       0.9857 |       0.9857 |       0.9857 |xxxxxxxxxxxxx |xxxxxxxxxxxxx |xxxxxxxxxxxxx |       1.0000 |       1.0000 |       1.0000 |       1.0000 |xxxxxxxxxxxxx |xxxxxxxxxxxxx |xxxxxxxxxxxxx |       1.0000 |       1.0000 |       1.0000 |       1.0000 |xxxxxxxxxxxxx |xxxxxxxxxxxxx |xxxxxxxxxxxxx |       1.0000 |       1.0000 |       1.0000 |       1.0000 |

Command list: 
	sslittle-na-sstrix-gcc -Wall -O3 -funroll-loops -finline-functions  -DRANDOM_SIZE=4096 -DOFFSET=6 -DSORT=cache_radixsort sorts/cache_radixsort359115075.c simpleMain.c -o cache_radixsort1354804593
	sim-cache -cache:dl1 dl1:256:32:1:l -cache:dl2 dl2:131072:32:1:l -cache:il1 il1:256:32:1:l -cache:il2 dl2 cache_radixsort1354804593
	sim-cache -cache:dl1 dl1:256:32:1:l -cache:dl2 dl2:65536:32:1:l -cache:il1 il1:256:32:1:l -cache:il2 dl2 cache_radixsort1354804593
	sim-cache -cache:dl1 dl1:1:32:256:l -cache:dl2 dl2:1:32:131072:l -cache:il1 il1:1:32:256:l -cache:il2 dl2 cache_radixsort1354804593
	sim-cache -cache:dl1 dl1:1:32:256:l -cache:dl2 dl2:1:32:65536:l -cache:il1 il1:1:32:256:l -cache:il2 dl2 cache_radixsort1354804593
	sim-bpred -bpred bimod -bpred:bimod 512 cache_radixsort1354804593
	sim-bpred -bpred bimod -bpred:bimod 1024 cache_radixsort1354804593
	sim-bpred -bpred bimod -bpred:bimod 2048 cache_radixsort1354804593
	sim-bpred -bpred 2lev -bpred:2lev 1 512 10 1 cache_radixsort1354804593
	sim-bpred -bpred 2lev -bpred:2lev 1 1024 10 1 cache_radixsort1354804593
	sim-bpred -bpred 2lev -bpred:2lev 1 2048 10 1 cache_radixsort1354804593
	sim-bpred -bpred 2lev -bpred:2lev 1 4096 10 1 cache_radixsort1354804593
	sslittle-na-sstrix-gcc -Wall -O3 -funroll-loops -finline-functions  -DRANDOM_SIZE=8192 -DOFFSET=6 -DSORT=cache_radixsort sorts/cache_radixsort359115075.c simpleMain.c -o cache_radixsort1354804593
	sim-cache -cache:dl1 dl1:256:32:1:l -cache:dl2 dl2:131072:32:1:l -cache:il1 il1:256:32:1:l -cache:il2 dl2 cache_radixsort1354804593
	sim-cache -cache:dl1 dl1:256:32:1:l -cache:dl2 dl2:65536:32:1:l -cache:il1 il1:256:32:1:l -cache:il2 dl2 cache_radixsort1354804593
	sim-cache -cache:dl1 dl1:1:32:256:l -cache:dl2 dl2:1:32:131072:l -cache:il1 il1:1:32:256:l -cache:il2 dl2 cache_radixsort1354804593
	sim-cache -cache:dl1 dl1:1:32:256:l -cache:dl2 dl2:1:32:65536:l -cache:il1 il1:1:32:256:l -cache:il2 dl2 cache_radixsort1354804593
	sim-bpred -bpred bimod -bpred:bimod 512 cache_radixsort1354804593
	sim-bpred -bpred bimod -bpred:bimod 1024 cache_radixsort1354804593
	sim-bpred -bpred bimod -bpred:bimod 2048 cache_radixsort1354804593
	sim-bpred -bpred 2lev -bpred:2lev 1 512 10 1 cache_radixsort1354804593
	sim-bpred -bpred 2lev -bpred:2lev 1 1024 10 1 cache_radixsort1354804593
	sim-bpred -bpred 2lev -bpred:2lev 1 2048 10 1 cache_radixsort1354804593
	sim-bpred -bpred 2lev -bpred:2lev 1 4096 10 1 cache_radixsort1354804593
	sslittle-na-sstrix-gcc -Wall -O3 -funroll-loops -finline-functions  -DRANDOM_SIZE=16384 -DOFFSET=6 -DSORT=cache_radixsort sorts/cache_radixsort359115075.c simpleMain.c -o cache_radixsort1354804593
	sim-cache -cache:dl1 dl1:256:32:1:l -cache:dl2 dl2:131072:32:1:l -cache:il1 il1:256:32:1:l -cache:il2 dl2 cache_radixsort1354804593
	sim-cache -cache:dl1 dl1:256:32:1:l -cache:dl2 dl2:65536:32:1:l -cache:il1 il1:256:32:1:l -cache:il2 dl2 cache_radixsort1354804593
	sim-cache -cache:dl1 dl1:1:32:256:l -cache:dl2 dl2:1:32:131072:l -cache:il1 il1:1:32:256:l -cache:il2 dl2 cache_radixsort1354804593
	sim-cache -cache:dl1 dl1:1:32:256:l -cache:dl2 dl2:1:32:65536:l -cache:il1 il1:1:32:256:l -cache:il2 dl2 cache_radixsort1354804593
	sim-bpred -bpred bimod -bpred:bimod 512 cache_radixsort1354804593
	sim-bpred -bpred bimod -bpred:bimod 1024 cache_radixsort1354804593
	sim-bpred -bpred bimod -bpred:bimod 2048 cache_radixsort1354804593
	sim-bpred -bpred 2lev -bpred:2lev 1 512 10 1 cache_radixsort1354804593
	sim-bpred -bpred 2lev -bpred:2lev 1 1024 10 1 cache_radixsort1354804593
	sim-bpred -bpred 2lev -bpred:2lev 1 2048 10 1 cache_radixsort1354804593
	sim-bpred -bpred 2lev -bpred:2lev 1 4096 10 1 cache_radixsort1354804593
	sslittle-na-sstrix-gcc -Wall -O3 -funroll-loops -finline-functions  -DRANDOM_SIZE=32768 -DOFFSET=6 -DSORT=cache_radixsort sorts/cache_radixsort359115075.c simpleMain.c -o cache_radixsort1354804593
	sim-cache -cache:dl1 dl1:256:32:1:l -cache:dl2 dl2:131072:32:1:l -cache:il1 il1:256:32:1:l -cache:il2 dl2 cache_radixsort1354804593
	sim-cache -cache:dl1 dl1:256:32:1:l -cache:dl2 dl2:65536:32:1:l -cache:il1 il1:256:32:1:l -cache:il2 dl2 cache_radixsort1354804593
	sim-cache -cache:dl1 dl1:1:32:256:l -cache:dl2 dl2:1:32:131072:l -cache:il1 il1:1:32:256:l -cache:il2 dl2 cache_radixsort1354804593
	sim-cache -cache:dl1 dl1:1:32:256:l -cache:dl2 dl2:1:32:65536:l -cache:il1 il1:1:32:256:l -cache:il2 dl2 cache_radixsort1354804593
	sim-bpred -bpred bimod -bpred:bimod 512 cache_radixsort1354804593
	sim-bpred -bpred bimod -bpred:bimod 1024 cache_radixsort1354804593
	sim-bpred -bpred bimod -bpred:bimod 2048 cache_radixsort1354804593
	sim-bpred -bpred 2lev -bpred:2lev 1 512 10 1 cache_radixsort1354804593
	sim-bpred -bpred 2lev -bpred:2lev 1 1024 10 1 cache_radixsort1354804593
	sim-bpred -bpred 2lev -bpred:2lev 1 2048 10 1 cache_radixsort1354804593
	sim-bpred -bpred 2lev -bpred:2lev 1 4096 10 1 cache_radixsort1354804593
	sslittle-na-sstrix-gcc -Wall -O3 -funroll-loops -finline-functions  -DRANDOM_SIZE=65536 -DOFFSET=6 -DSORT=cache_radixsort sorts/cache_radixsort359115075.c simpleMain.c -o cache_radixsort1354804593
	sim-cache -cache:dl1 dl1:256:32:1:l -cache:dl2 dl2:131072:32:1:l -cache:il1 il1:256:32:1:l -cache:il2 dl2 cache_radixsort1354804593
	sim-cache -cache:dl1 dl1:256:32:1:l -cache:dl2 dl2:65536:32:1:l -cache:il1 il1:256:32:1:l -cache:il2 dl2 cache_radixsort1354804593
	sim-cache -cache:dl1 dl1:1:32:256:l -cache:dl2 dl2:1:32:131072:l -cache:il1 il1:1:32:256:l -cache:il2 dl2 cache_radixsort1354804593
	sim-cache -cache:dl1 dl1:1:32:256:l -cache:dl2 dl2:1:32:65536:l -cache:il1 il1:1:32:256:l -cache:il2 dl2 cache_radixsort1354804593
	sim-bpred -bpred bimod -bpred:bimod 512 cache_radixsort1354804593
	sim-bpred -bpred bimod -bpred:bimod 1024 cache_radixsort1354804593
	sim-bpred -bpred bimod -bpred:bimod 2048 cache_radixsort1354804593
	sim-bpred -bpred 2lev -bpred:2lev 1 512 10 1 cache_radixsort1354804593
	sim-bpred -bpred 2lev -bpred:2lev 1 1024 10 1 cache_radixsort1354804593
	sim-bpred -bpred 2lev -bpred:2lev 1 2048 10 1 cache_radixsort1354804593
	sim-bpred -bpred 2lev -bpred:2lev 1 4096 10 1 cache_radixsort1354804593
	sslittle-na-sstrix-gcc -Wall -O3 -funroll-loops -finline-functions  -DRANDOM_SIZE=131072 -DOFFSET=6 -DSORT=cache_radixsort sorts/cache_radixsort359115075.c simpleMain.c -o cache_radixsort1354804593
	sim-cache -cache:dl1 dl1:256:32:1:l -cache:dl2 dl2:131072:32:1:l -cache:il1 il1:256:32:1:l -cache:il2 dl2 cache_radixsort1354804593
	sim-cache -cache:dl1 dl1:256:32:1:l -cache:dl2 dl2:65536:32:1:l -cache:il1 il1:256:32:1:l -cache:il2 dl2 cache_radixsort1354804593
	sim-cache -cache:dl1 dl1:1:32:256:l -cache:dl2 dl2:1:32:131072:l -cache:il1 il1:1:32:256:l -cache:il2 dl2 cache_radixsort1354804593
	sim-cache -cache:dl1 dl1:1:32:256:l -cache:dl2 dl2:1:32:65536:l -cache:il1 il1:1:32:256:l -cache:il2 dl2 cache_radixsort1354804593
	sim-bpred -bpred bimod -bpred:bimod 512 cache_radixsort1354804593
	sim-bpred -bpred bimod -bpred:bimod 1024 cache_radixsort1354804593
	sim-bpred -bpred bimod -bpred:bimod 2048 cache_radixsort1354804593
	sim-bpred -bpred 2lev -bpred:2lev 1 512 10 1 cache_radixsort1354804593
	sim-bpred -bpred 2lev -bpred:2lev 1 1024 10 1 cache_radixsort1354804593
	sim-bpred -bpred 2lev -bpred:2lev 1 2048 10 1 cache_radixsort1354804593
	sim-bpred -bpred 2lev -bpred:2lev 1 4096 10 1 cache_radixsort1354804593
	sslittle-na-sstrix-gcc -Wall -O3 -funroll-loops -finline-functions  -DRANDOM_SIZE=262144 -DOFFSET=6 -DSORT=cache_radixsort sorts/cache_radixsort359115075.c simpleMain.c -o cache_radixsort1354804593
	sim-cache -cache:dl1 dl1:256:32:1:l -cache:dl2 dl2:131072:32:1:l -cache:il1 il1:256:32:1:l -cache:il2 dl2 cache_radixsort1354804593
	sim-cache -cache:dl1 dl1:256:32:1:l -cache:dl2 dl2:65536:32:1:l -cache:il1 il1:256:32:1:l -cache:il2 dl2 cache_radixsort1354804593
	sim-cache -cache:dl1 dl1:1:32:256:l -cache:dl2 dl2:1:32:131072:l -cache:il1 il1:1:32:256:l -cache:il2 dl2 cache_radixsort1354804593
	sim-cache -cache:dl1 dl1:1:32:256:l -cache:dl2 dl2:1:32:65536:l -cache:il1 il1:1:32:256:l -cache:il2 dl2 cache_radixsort1354804593
	sim-bpred -bpred bimod -bpred:bimod 512 cache_radixsort1354804593
	sim-bpred -bpred bimod -bpred:bimod 1024 cache_radixsort1354804593
	sim-bpred -bpred bimod -bpred:bimod 2048 cache_radixsort1354804593
	sim-bpred -bpred 2lev -bpred:2lev 1 512 10 1 cache_radixsort1354804593
	sim-bpred -bpred 2lev -bpred:2lev 1 1024 10 1 cache_radixsort1354804593
	sim-bpred -bpred 2lev -bpred:2lev 1 2048 10 1 cache_radixsort1354804593
	sim-bpred -bpred 2lev -bpred:2lev 1 4096 10 1 cache_radixsort1354804593
	sslittle-na-sstrix-gcc -Wall -O3 -funroll-loops -finline-functions  -DRANDOM_SIZE=524288 -DOFFSET=6 -DSORT=cache_radixsort sorts/cache_radixsort359115075.c simpleMain.c -o cache_radixsort1354804593
	sim-cache -cache:dl1 dl1:256:32:1:l -cache:dl2 dl2:131072:32:1:l -cache:il1 il1:256:32:1:l -cache:il2 dl2 cache_radixsort1354804593
	sim-cache -cache:dl1 dl1:256:32:1:l -cache:dl2 dl2:65536:32:1:l -cache:il1 il1:256:32:1:l -cache:il2 dl2 cache_radixsort1354804593
	sim-cache -cache:dl1 dl1:1:32:256:l -cache:dl2 dl2:1:32:131072:l -cache:il1 il1:1:32:256:l -cache:il2 dl2 cache_radixsort1354804593
	sim-cache -cache:dl1 dl1:1:32:256:l -cache:dl2 dl2:1:32:65536:l -cache:il1 il1:1:32:256:l -cache:il2 dl2 cache_radixsort1354804593
	sim-bpred -bpred bimod -bpred:bimod 512 cache_radixsort1354804593
	sim-bpred -bpred bimod -bpred:bimod 1024 cache_radixsort1354804593
	sim-bpred -bpred bimod -bpred:bimod 2048 cache_radixsort1354804593
	sim-bpred -bpred 2lev -bpred:2lev 1 512 10 1 cache_radixsort1354804593
	sim-bpred -bpred 2lev -bpred:2lev 1 1024 10 1 cache_radixsort1354804593
	sim-bpred -bpred 2lev -bpred:2lev 1 2048 10 1 cache_radixsort1354804593
	sim-bpred -bpred 2lev -bpred:2lev 1 4096 10 1 cache_radixsort1354804593
	sslittle-na-sstrix-gcc -Wall -O3 -funroll-loops -finline-functions  -DRANDOM_SIZE=1048576 -DOFFSET=6 -DSORT=cache_radixsort sorts/cache_radixsort359115075.c simpleMain.c -o cache_radixsort1354804593
	sim-cache -cache:dl1 dl1:256:32:1:l -cache:dl2 dl2:131072:32:1:l -cache:il1 il1:256:32:1:l -cache:il2 dl2 cache_radixsort1354804593
	sim-cache -cache:dl1 dl1:256:32:1:l -cache:dl2 dl2:65536:32:1:l -cache:il1 il1:256:32:1:l -cache:il2 dl2 cache_radixsort1354804593
	sim-cache -cache:dl1 dl1:1:32:256:l -cache:dl2 dl2:1:32:131072:l -cache:il1 il1:1:32:256:l -cache:il2 dl2 cache_radixsort1354804593
	sim-cache -cache:dl1 dl1:1:32:256:l -cache:dl2 dl2:1:32:65536:l -cache:il1 il1:1:32:256:l -cache:il2 dl2 cache_radixsort1354804593
	sim-bpred -bpred bimod -bpred:bimod 512 cache_radixsort1354804593
	sim-bpred -bpred bimod -bpred:bimod 1024 cache_radixsort1354804593
	sim-bpred -bpred bimod -bpred:bimod 2048 cache_radixsort1354804593
	sim-bpred -bpred 2lev -bpred:2lev 1 512 10 1 cache_radixsort1354804593
	sim-bpred -bpred 2lev -bpred:2lev 1 1024 10 1 cache_radixsort1354804593
	sim-bpred -bpred 2lev -bpred:2lev 1 2048 10 1 cache_radixsort1354804593
	sim-bpred -bpred 2lev -bpred:2lev 1 4096 10 1 cache_radixsort1354804593
	sslittle-na-sstrix-gcc -Wall -O3 -funroll-loops -finline-functions  -DRANDOM_SIZE=2097152 -DOFFSET=6 -DSORT=cache_radixsort sorts/cache_radixsort359115075.c simpleMain.c -o cache_radixsort1354804593
	sim-cache -cache:dl1 dl1:256:32:1:l -cache:dl2 dl2:131072:32:1:l -cache:il1 il1:256:32:1:l -cache:il2 dl2 cache_radixsort1354804593
	sim-cache -cache:dl1 dl1:256:32:1:l -cache:dl2 dl2:65536:32:1:l -cache:il1 il1:256:32:1:l -cache:il2 dl2 cache_radixsort1354804593
	sim-cache -cache:dl1 dl1:1:32:256:l -cache:dl2 dl2:1:32:131072:l -cache:il1 il1:1:32:256:l -cache:il2 dl2 cache_radixsort1354804593
	sim-cache -cache:dl1 dl1:1:32:256:l -cache:dl2 dl2:1:32:65536:l -cache:il1 il1:1:32:256:l -cache:il2 dl2 cache_radixsort1354804593
	sim-bpred -bpred bimod -bpred:bimod 512 cache_radixsort1354804593
	sim-bpred -bpred bimod -bpred:bimod 1024 cache_radixsort1354804593
	sim-bpred -bpred bimod -bpred:bimod 2048 cache_radixsort1354804593
	sim-bpred -bpred 2lev -bpred:2lev 1 512 10 1 cache_radixsort1354804593
	sim-bpred -bpred 2lev -bpred:2lev 1 1024 10 1 cache_radixsort1354804593
	sim-bpred -bpred 2lev -bpred:2lev 1 2048 10 1 cache_radixsort1354804593
	sim-bpred -bpred 2lev -bpred:2lev 1 4096 10 1 cache_radixsort1354804593
	sslittle-na-sstrix-gcc -Wall -O3 -funroll-loops -finline-functions  -DRANDOM_SIZE=4194304 -DOFFSET=6 -DSORT=cache_radixsort sorts/cache_radixsort359115075.c simpleMain.c -o cache_radixsort1354804593
	sim-cache -cache:dl1 dl1:256:32:1:l -cache:dl2 dl2:131072:32:1:l -cache:il1 il1:256:32:1:l -cache:il2 dl2 cache_radixsort1354804593
	sim-cache -cache:dl1 dl1:256:32:1:l -cache:dl2 dl2:65536:32:1:l -cache:il1 il1:256:32:1:l -cache:il2 dl2 cache_radixsort1354804593
	sim-cache -cache:dl1 dl1:1:32:256:l -cache:dl2 dl2:1:32:131072:l -cache:il1 il1:1:32:256:l -cache:il2 dl2 cache_radixsort1354804593
	sim-cache -cache:dl1 dl1:1:32:256:l -cache:dl2 dl2:1:32:65536:l -cache:il1 il1:1:32:256:l -cache:il2 dl2 cache_radixsort1354804593
	sim-bpred -bpred bimod -bpred:bimod 512 cache_radixsort1354804593
	sim-bpred -bpred bimod -bpred:bimod 1024 cache_radixsort1354804593
	sim-bpred -bpred bimod -bpred:bimod 2048 cache_radixsort1354804593
	sim-bpred -bpred 2lev -bpred:2lev 1 512 10 1 cache_radixsort1354804593
	sim-bpred -bpred 2lev -bpred:2lev 1 1024 10 1 cache_radixsort1354804593
	sim-bpred -bpred 2lev -bpred:2lev 1 2048 10 1 cache_radixsort1354804593
	sim-bpred -bpred 2lev -bpred:2lev 1 4096 10 1 cache_radixsort1354804593
