Mon Jul 25 09:48:04 2005
Run as: "./do_simple -c random.org7 -o 7 memory_tuned_quicksort"
-------------------------------------------------------------------------------------------------
sim-cache                                     4096 |         4096 |         4096 |         4096 |         8192 |         8192 |         8192 |         8192 |        16384 |        16384 |        16384 |        16384 |        32768 |        32768 |        32768 |        32768 |        65536 |        65536 |        65536 |        65536 |       131072 |       131072 |       131072 |       131072 |       262144 |       262144 |       262144 |       262144 |       524288 |       524288 |       524288 |       524288 |      1048576 |      1048576 |      1048576 |      1048576 |      2097152 |      2097152 |      2097152 |      2097152 |      4194304 |      4194304 |      4194304 |      4194304 |
-cache:dl1 dl1:256:32:1:l -cache:dl2 dl2:131072:32:1:l -cache:il1 il1:256:32:1:l -cache:il2 dl2
-cache:dl1 dl1:256:32:1:l -cache:dl2 dl2:65536:32:1:l -cache:il1 il1:256:32:1:l -cache:il2 dl2
-cache:dl1 dl1:1:32:256:l -cache:dl2 dl2:1:32:131072:l -cache:il1 il1:1:32:256:l -cache:il2 dl2
-cache:dl1 dl1:1:32:256:l -cache:dl2 dl2:1:32:65536:l -cache:il1 il1:1:32:256:l -cache:il2 dl2
-------------------------------------------------------------------------------------------------
sim_num_insn                                476303 |       476303 |       476303 |       476303 |      1002421 |      1002421 |      1002421 |      1002421 |      2138537 |      2138537 |      2138537 |      2138537 |      4693205 |      4693205 |      4693205 |      4693205 |      9858375 |      9858375 |      9858375 |      9858375 |     20589783 |     20589783 |     20589783 |     20589783 |     43778319 |     43778319 |     43778319 |     43778319 |     93161361 |     93161361 |     93161361 |     93161361 |    194442446 |    194442446 |    194442446 |    194442446 |    406607442 |    406607442 |    406607442 |    406607442 |    859251683 |    859251683 |    859251683 |    859251683 |
sim_num_refs                                124497 |       124497 |       124497 |       124497 |       259883 |       259883 |       259883 |       259883 |       550860 |       550860 |       550860 |       550860 |      1180161 |      1180161 |      1180161 |      1180161 |      2481424 |      2481424 |      2481424 |      2481424 |      5190526 |      5190526 |      5190526 |      5190526 |     10966076 |     10966076 |     10966076 |     10966076 |     23144279 |     23144279 |     23144279 |     23144279 |     48328845 |     48328845 |     48328845 |     48328845 |    100889503 |    100889503 |    100889503 |    100889503 |    211835819 |    211835819 |    211835819 |    211835819 |
sim_elapsed_time                                 1 |            1 |            7 |            4 |            1 |            1 |           10 |            6 |            1 |            1 |           16 |            8 |            1 |            2 |           26 |           14 |            2 |            3 |           48 |           25 |            6 |            5 |           91 |           45 |           11 |           11 |          166 |           77 |           24 |           25 |          286 |          111 |           52 |           52 |          398 |          140 |          109 |          109 |          456 |          201 |          230 |          230 |          587 |          332 |
sim_inst_rate                          476303.0000 |  476303.0000 |   68043.2857 |  119075.7500 | 1002421.0000 | 1002421.0000 |  100242.1000 |  167070.1667 | 2138537.0000 | 2138537.0000 |  133658.5625 |  267317.1250 | 4693205.0000 | 2346602.5000 |  180507.8846 |  335228.9286 | 4929187.5000 | 3286125.0000 |  205382.8125 |  394335.0000 | 3431630.5000 | 4117956.6000 |  226261.3516 |  457550.7333 | 3979847.1818 | 3979847.1818 |  263724.8133 |  568549.5974 | 3881723.3750 | 3726454.4400 |  325739.0245 |  839291.5405 | 3739277.8077 | 3739277.8077 |  488548.8593 | 1388874.6143 | 3730343.5046 | 3730343.5046 |  891682.9868 | 2022922.5970 | 3735876.8826 | 3735876.8826 | 1463801.8450 | 2588107.4789 |
il1.accesses                                476303 |       476303 |       476303 |       476303 |      1002421 |      1002421 |      1002421 |      1002421 |      2138537 |      2138537 |      2138537 |      2138537 |      4693205 |      4693205 |      4693205 |      4693205 |      9858375 |      9858375 |      9858375 |      9858375 |     20589783 |     20589783 |     20589783 |     20589783 |     43778319 |     43778319 |     43778319 |     43778319 |     93161361 |     93161361 |     93161361 |     93161361 |    194442446 |    194442446 |    194442446 |    194442446 |    406607442 |    406607442 |    406607442 |    406607442 |    859251683 |    859251683 |    859251683 |    859251683 |
il1.hits                                    475847 |       475847 |       475876 |       475876 |      1001971 |      1001971 |      1002002 |      1002002 |      2138066 |      2138066 |      2138102 |      2138102 |      4692746 |      4692746 |      4692773 |      4692773 |      9857918 |      9857918 |      9857945 |      9857945 |     20589331 |     20589331 |     20589359 |     20589359 |     43777860 |     43777860 |     43777887 |     43777887 |     93160903 |     93160903 |     93160930 |     93160930 |    194441994 |    194441994 |    194442022 |    194442022 |    406606983 |    406606983 |    406607010 |    406607010 |    859251231 |    859251231 |    859251259 |    859251259 |
il1.misses                                     456 |          456 |          427 |          427 |          450 |          450 |          419 |          419 |          471 |          471 |          435 |          435 |          459 |          459 |          432 |          432 |          457 |          457 |          430 |          430 |          452 |          452 |          424 |          424 |          459 |          459 |          432 |          432 |          458 |          458 |          431 |          431 |          452 |          452 |          424 |          424 |          459 |          459 |          432 |          432 |          452 |          452 |          424 |          424 |
il1.replacements                               217 |          217 |          171 |          171 |          217 |          217 |          163 |          163 |          232 |          232 |          179 |          179 |          220 |          220 |          176 |          176 |          218 |          218 |          174 |          174 |          214 |          214 |          168 |          168 |          221 |          221 |          176 |          176 |          220 |          220 |          175 |          175 |          214 |          214 |          168 |          168 |          221 |          221 |          176 |          176 |          214 |          214 |          168 |          168 |
il1.writebacks                                   0 |            0 |            0 |            0 |            0 |            0 |            0 |            0 |            0 |            0 |            0 |            0 |            0 |            0 |            0 |            0 |            0 |            0 |            0 |            0 |            0 |            0 |            0 |            0 |            0 |            0 |            0 |            0 |            0 |            0 |            0 |            0 |            0 |            0 |            0 |            0 |            0 |            0 |            0 |            0 |            0 |            0 |            0 |            0 |
il1.invalidations                                0 |            0 |            0 |            0 |            0 |            0 |            0 |            0 |            0 |            0 |            0 |            0 |            0 |            0 |            0 |            0 |            0 |            0 |            0 |            0 |            0 |            0 |            0 |            0 |            0 |            0 |            0 |            0 |            0 |            0 |            0 |            0 |            0 |            0 |            0 |            0 |            0 |            0 |            0 |            0 |            0 |            0 |            0 |            0 |
il1.miss_rate                               0.0010 |       0.0010 |       0.0009 |       0.0009 |       0.0004 |       0.0004 |       0.0004 |       0.0004 |       0.0002 |       0.0002 |       0.0002 |       0.0002 |       0.0001 |       0.0001 |       0.0001 |       0.0001 |       0.0000 |       0.0000 |       0.0000 |       0.0000 |       0.0000 |       0.0000 |       0.0000 |       0.0000 |       0.0000 |       0.0000 |       0.0000 |       0.0000 |       0.0000 |       0.0000 |       0.0000 |       0.0000 |       0.0000 |       0.0000 |       0.0000 |       0.0000 |       0.0000 |       0.0000 |       0.0000 |       0.0000 |       0.0000 |       0.0000 |       0.0000 |       0.0000 |
il1.repl_rate                               0.0005 |       0.0005 |       0.0004 |       0.0004 |       0.0002 |       0.0002 |       0.0002 |       0.0002 |       0.0001 |       0.0001 |       0.0001 |       0.0001 |       0.0000 |       0.0000 |       0.0000 |       0.0000 |       0.0000 |       0.0000 |       0.0000 |       0.0000 |       0.0000 |       0.0000 |       0.0000 |       0.0000 |       0.0000 |       0.0000 |       0.0000 |       0.0000 |       0.0000 |       0.0000 |       0.0000 |       0.0000 |       0.0000 |       0.0000 |       0.0000 |       0.0000 |       0.0000 |       0.0000 |       0.0000 |       0.0000 |       0.0000 |       0.0000 |       0.0000 |       0.0000 |
il1.wb_rate                                 0.0000 |       0.0000 |       0.0000 |       0.0000 |       0.0000 |       0.0000 |       0.0000 |       0.0000 |       0.0000 |       0.0000 |       0.0000 |       0.0000 |       0.0000 |       0.0000 |       0.0000 |       0.0000 |       0.0000 |       0.0000 |       0.0000 |       0.0000 |       0.0000 |       0.0000 |       0.0000 |       0.0000 |       0.0000 |       0.0000 |       0.0000 |       0.0000 |       0.0000 |       0.0000 |       0.0000 |       0.0000 |       0.0000 |       0.0000 |       0.0000 |       0.0000 |       0.0000 |       0.0000 |       0.0000 |       0.0000 |       0.0000 |       0.0000 |       0.0000 |       0.0000 |
il1.inv_rate                                0.0000 |       0.0000 |       0.0000 |       0.0000 |       0.0000 |       0.0000 |       0.0000 |       0.0000 |       0.0000 |       0.0000 |       0.0000 |       0.0000 |       0.0000 |       0.0000 |       0.0000 |       0.0000 |       0.0000 |       0.0000 |       0.0000 |       0.0000 |       0.0000 |       0.0000 |       0.0000 |       0.0000 |       0.0000 |       0.0000 |       0.0000 |       0.0000 |       0.0000 |       0.0000 |       0.0000 |       0.0000 |       0.0000 |       0.0000 |       0.0000 |       0.0000 |       0.0000 |       0.0000 |       0.0000 |       0.0000 |       0.0000 |       0.0000 |       0.0000 |       0.0000 |
dl1.accesses                                140963 |       140963 |       140963 |       140963 |       292733 |       292733 |       292733 |       292733 |       616478 |       616478 |       616478 |       616478 |      1311315 |      1311315 |      1311315 |      1311315 |      2743650 |      2743650 |      2743650 |      2743650 |      5714896 |      5714896 |      5714896 |      5714896 |     12014734 |     12014734 |     12014734 |     12014734 |     25241513 |     25241513 |     25241513 |     25241513 |     52523231 |     52523231 |     52523231 |     52523231 |    109278193 |    109278193 |    109278193 |    109278193 |    228613117 |    228613117 |    228613117 |    228613117 |
dl1.hits                                    138708 |       138708 |       138510 |       138510 |       287353 |       287353 |       287427 |       287427 |       604477 |       604477 |       604299 |       604299 |      1280368 |      1280368 |      1280413 |      1280413 |      2674896 |      2674896 |      2675359 |      2675359 |      5566666 |      5566666 |      5567096 |      5567096 |     11675057 |     11675057 |     11678423 |     11678423 |     24463222 |     24463222 |     24471310 |     24471310 |     50845199 |     50845199 |     50864063 |     50864063 |    105658538 |    105658538 |    105702971 |    105702971 |    220552809 |    220552809 |    220659446 |    220659446 |
dl1.misses                                    2255 |         2255 |         2453 |         2453 |         5380 |         5380 |         5306 |         5306 |        12001 |        12001 |        12179 |        12179 |        30947 |        30947 |        30902 |        30902 |        68754 |        68754 |        68291 |        68291 |       148230 |       148230 |       147800 |       147800 |       339677 |       339677 |       336311 |       336311 |       778291 |       778291 |       770203 |       770203 |      1678032 |      1678032 |      1659168 |      1659168 |      3619655 |      3619655 |      3575222 |      3575222 |      8060308 |      8060308 |      7953671 |      7953671 |
dl1.replacements                              1999 |         1999 |         2197 |         2197 |         5124 |         5124 |         5050 |         5050 |        11745 |        11745 |        11923 |        11923 |        30691 |        30691 |        30646 |        30646 |        68498 |        68498 |        68035 |        68035 |       147974 |       147974 |       147544 |       147544 |       339421 |       339421 |       336055 |       336055 |       778035 |       778035 |       769947 |       769947 |      1677776 |      1677776 |      1658912 |      1658912 |      3619399 |      3619399 |      3574966 |      3574966 |      8060052 |      8060052 |      7953415 |      7953415 |
dl1.writebacks                                1891 |         1891 |         2023 |         2023 |         4811 |         4811 |         4792 |         4792 |        11102 |        11102 |        11325 |        11325 |        27458 |        27458 |        27541 |        27541 |        62696 |        62696 |        62855 |        62855 |       139511 |       139511 |       140403 |       140403 |       315655 |       315655 |       315652 |       315652 |       712494 |       712494 |       712005 |       712005 |      1552114 |      1552114 |      1550643 |      1550643 |      3343047 |      3343047 |      3338728 |      3338728 |      7355500 |      7355500 |      7337016 |      7337016 |
dl1.invalidations                                0 |            0 |            0 |            0 |            0 |            0 |            0 |            0 |            0 |            0 |            0 |            0 |            0 |            0 |            0 |            0 |            0 |            0 |            0 |            0 |            0 |            0 |            0 |            0 |            0 |            0 |            0 |            0 |            0 |            0 |            0 |            0 |            0 |            0 |            0 |            0 |            0 |            0 |            0 |            0 |            0 |            0 |            0 |            0 |
dl1.miss_rate                               0.0160 |       0.0160 |       0.0174 |       0.0174 |       0.0184 |       0.0184 |       0.0181 |       0.0181 |       0.0195 |       0.0195 |       0.0198 |       0.0198 |       0.0236 |       0.0236 |       0.0236 |       0.0236 |       0.0251 |       0.0251 |       0.0249 |       0.0249 |       0.0259 |       0.0259 |       0.0259 |       0.0259 |       0.0283 |       0.0283 |       0.0280 |       0.0280 |       0.0308 |       0.0308 |       0.0305 |       0.0305 |       0.0319 |       0.0319 |       0.0316 |       0.0316 |       0.0331 |       0.0331 |       0.0327 |       0.0327 |       0.0353 |       0.0353 |       0.0348 |       0.0348 |
dl1.repl_rate                               0.0142 |       0.0142 |       0.0156 |       0.0156 |       0.0175 |       0.0175 |       0.0173 |       0.0173 |       0.0191 |       0.0191 |       0.0193 |       0.0193 |       0.0234 |       0.0234 |       0.0234 |       0.0234 |       0.0250 |       0.0250 |       0.0248 |       0.0248 |       0.0259 |       0.0259 |       0.0258 |       0.0258 |       0.0283 |       0.0283 |       0.0280 |       0.0280 |       0.0308 |       0.0308 |       0.0305 |       0.0305 |       0.0319 |       0.0319 |       0.0316 |       0.0316 |       0.0331 |       0.0331 |       0.0327 |       0.0327 |       0.0353 |       0.0353 |       0.0348 |       0.0348 |
dl1.wb_rate                                 0.0134 |       0.0134 |       0.0144 |       0.0144 |       0.0164 |       0.0164 |       0.0164 |       0.0164 |       0.0180 |       0.0180 |       0.0184 |       0.0184 |       0.0209 |       0.0209 |       0.0210 |       0.0210 |       0.0229 |       0.0229 |       0.0229 |       0.0229 |       0.0244 |       0.0244 |       0.0246 |       0.0246 |       0.0263 |       0.0263 |       0.0263 |       0.0263 |       0.0282 |       0.0282 |       0.0282 |       0.0282 |       0.0296 |       0.0296 |       0.0295 |       0.0295 |       0.0306 |       0.0306 |       0.0306 |       0.0306 |       0.0322 |       0.0322 |       0.0321 |       0.0321 |
dl1.inv_rate                                0.0000 |       0.0000 |       0.0000 |       0.0000 |       0.0000 |       0.0000 |       0.0000 |       0.0000 |       0.0000 |       0.0000 |       0.0000 |       0.0000 |       0.0000 |       0.0000 |       0.0000 |       0.0000 |       0.0000 |       0.0000 |       0.0000 |       0.0000 |       0.0000 |       0.0000 |       0.0000 |       0.0000 |       0.0000 |       0.0000 |       0.0000 |       0.0000 |       0.0000 |       0.0000 |       0.0000 |       0.0000 |       0.0000 |       0.0000 |       0.0000 |       0.0000 |       0.0000 |       0.0000 |       0.0000 |       0.0000 |       0.0000 |       0.0000 |       0.0000 |       0.0000 |
dl2.accesses                                  4602 |         4602 |         4903 |         4903 |        10641 |        10641 |        10517 |        10517 |        23574 |        23574 |        23939 |        23939 |        58864 |        58864 |        58875 |        58875 |       131907 |       131907 |       131576 |       131576 |       288193 |       288193 |       288627 |       288627 |       655791 |       655791 |       652395 |       652395 |      1491243 |      1491243 |      1482639 |      1482639 |      3230598 |      3230598 |      3210235 |      3210235 |      6963161 |      6963161 |      6914382 |      6914382 |     15416260 |     15416260 |     15291111 |     15291111 |
dl2.hits                                      3227 |         3227 |         3543 |         3543 |         8762 |         8762 |         8651 |         8651 |        20663 |        20663 |        21045 |        21045 |        53911 |        53911 |        53934 |        53934 |       122859 |       122859 |       122540 |       122540 |       270958 |       270958 |       271404 |       271404 |       622165 |       622165 |       618781 |       618781 |      1424850 |      1424168 |      1416258 |      1327599 |      3097993 |      2839898 |      2934895 |      2801536 |      6282031 |      5990774 |      6168936 |      5841238 |     13390166 |     12588234 |     13034425 |     12320245 |
dl2.misses                                    1375 |         1375 |         1360 |         1360 |         1879 |         1879 |         1866 |         1866 |         2911 |         2911 |         2894 |         2894 |         4953 |         4953 |         4941 |         4941 |         9048 |         9048 |         9036 |         9036 |        17235 |        17235 |        17223 |        17223 |        33626 |        33626 |        33614 |        33614 |        66393 |        67075 |        66381 |       155040 |       132605 |       390700 |       275340 |       408699 |       681130 |       972387 |       745446 |      1073144 |      2026094 |      2828026 |      2256686 |      2970866 |
dl2.replacements                               147 |          147 |            0 |            0 |          146 |          146 |            0 |            0 |          150 |          150 |            0 |            0 |          145 |          145 |            0 |            0 |          145 |          145 |            0 |            0 |          145 |          145 |            0 |            0 |          145 |          145 |            0 |            0 |          145 |         1539 |            0 |        89504 |         1533 |       325164 |       144268 |       343163 |       550058 |       906851 |       614374 |      1007608 |      1895022 |      2762490 |      2125614 |      2905330 |
dl2.writebacks                                  82 |           82 |            0 |            0 |           83 |           83 |            0 |            0 |           85 |           85 |            0 |            0 |           84 |           84 |            0 |            0 |           84 |           84 |            0 |            0 |           84 |           84 |            0 |            0 |           84 |           84 |            0 |            0 |           84 |         1290 |            0 |        84572 |         1286 |       317033 |       139630 |       335016 |       548258 |       898061 |       611169 |       988189 |      1858432 |      2604696 |      2078529 |      2725848 |
dl2.invalidations                                0 |            0 |            0 |            0 |            0 |            0 |            0 |            0 |            0 |            0 |            0 |            0 |            0 |            0 |            0 |            0 |            0 |            0 |            0 |            0 |            0 |            0 |            0 |            0 |            0 |            0 |            0 |            0 |            0 |            0 |            0 |            0 |            0 |            0 |            0 |            0 |            0 |            0 |            0 |            0 |            0 |            0 |            0 |            0 |
dl2.miss_rate                               0.2988 |       0.2988 |       0.2774 |       0.2774 |       0.1766 |       0.1766 |       0.1774 |       0.1774 |       0.1235 |       0.1235 |       0.1209 |       0.1209 |       0.0841 |       0.0841 |       0.0839 |       0.0839 |       0.0686 |       0.0686 |       0.0687 |       0.0687 |       0.0598 |       0.0598 |       0.0597 |       0.0597 |       0.0513 |       0.0513 |       0.0515 |       0.0515 |       0.0445 |       0.0450 |       0.0448 |       0.1046 |       0.0410 |       0.1209 |       0.0858 |       0.1273 |       0.0978 |       0.1396 |       0.1078 |       0.1552 |       0.1314 |       0.1834 |       0.1476 |       0.1943 |
dl2.repl_rate                               0.0319 |       0.0319 |       0.0000 |       0.0000 |       0.0137 |       0.0137 |       0.0000 |       0.0000 |       0.0064 |       0.0064 |       0.0000 |       0.0000 |       0.0025 |       0.0025 |       0.0000 |       0.0000 |       0.0011 |       0.0011 |       0.0000 |       0.0000 |       0.0005 |       0.0005 |       0.0000 |       0.0000 |       0.0002 |       0.0002 |       0.0000 |       0.0000 |       0.0001 |       0.0010 |       0.0000 |       0.0604 |       0.0005 |       0.1007 |       0.0449 |       0.1069 |       0.0790 |       0.1302 |       0.0889 |       0.1457 |       0.1229 |       0.1792 |       0.1390 |       0.1900 |
dl2.wb_rate                                 0.0178 |       0.0178 |       0.0000 |       0.0000 |       0.0078 |       0.0078 |       0.0000 |       0.0000 |       0.0036 |       0.0036 |       0.0000 |       0.0000 |       0.0014 |       0.0014 |       0.0000 |       0.0000 |       0.0006 |       0.0006 |       0.0000 |       0.0000 |       0.0003 |       0.0003 |       0.0000 |       0.0000 |       0.0001 |       0.0001 |       0.0000 |       0.0000 |       0.0001 |       0.0009 |       0.0000 |       0.0570 |       0.0004 |       0.0981 |       0.0435 |       0.1044 |       0.0787 |       0.1290 |       0.0884 |       0.1429 |       0.1206 |       0.1690 |       0.1359 |       0.1783 |
dl2.inv_rate                                0.0000 |       0.0000 |       0.0000 |       0.0000 |       0.0000 |       0.0000 |       0.0000 |       0.0000 |       0.0000 |       0.0000 |       0.0000 |       0.0000 |       0.0000 |       0.0000 |       0.0000 |       0.0000 |       0.0000 |       0.0000 |       0.0000 |       0.0000 |       0.0000 |       0.0000 |       0.0000 |       0.0000 |       0.0000 |       0.0000 |       0.0000 |       0.0000 |       0.0000 |       0.0000 |       0.0000 |       0.0000 |       0.0000 |       0.0000 |       0.0000 |       0.0000 |       0.0000 |       0.0000 |       0.0000 |       0.0000 |       0.0000 |       0.0000 |       0.0000 |       0.0000 |
itlb.accesses                               476303 |       476303 |       476303 |       476303 |      1002421 |      1002421 |      1002421 |      1002421 |      2138537 |      2138537 |      2138537 |      2138537 |      4693205 |      4693205 |      4693205 |      4693205 |      9858375 |      9858375 |      9858375 |      9858375 |     20589783 |     20589783 |     20589783 |     20589783 |     43778319 |     43778319 |     43778319 |     43778319 |     93161361 |     93161361 |     93161361 |     93161361 |    194442446 |    194442446 |    194442446 |    194442446 |    406607442 |    406607442 |    406607442 |    406607442 |    859251683 |    859251683 |    859251683 |    859251683 |
itlb.hits                                   476292 |       476292 |       476292 |       476292 |      1002410 |      1002410 |      1002410 |      1002410 |      2138526 |      2138526 |      2138526 |      2138526 |      4693195 |      4693195 |      4693195 |      4693195 |      9858365 |      9858365 |      9858365 |      9858365 |     20589773 |     20589773 |     20589773 |     20589773 |     43778309 |     43778309 |     43778309 |     43778309 |     93161351 |     93161351 |     93161351 |     93161351 |    194442436 |    194442436 |    194442436 |    194442436 |    406607432 |    406607432 |    406607432 |    406607432 |    859251673 |    859251673 |    859251673 |    859251673 |
itlb.misses                                     11 |           11 |           11 |           11 |           11 |           11 |           11 |           11 |           11 |           11 |           11 |           11 |           10 |           10 |           10 |           10 |           10 |           10 |           10 |           10 |           10 |           10 |           10 |           10 |           10 |           10 |           10 |           10 |           10 |           10 |           10 |           10 |           10 |           10 |           10 |           10 |           10 |           10 |           10 |           10 |           10 |           10 |           10 |           10 |
itlb.replacements                                0 |            0 |            0 |            0 |            0 |            0 |            0 |            0 |            0 |            0 |            0 |            0 |            0 |            0 |            0 |            0 |            0 |            0 |            0 |            0 |            0 |            0 |            0 |            0 |            0 |            0 |            0 |            0 |            0 |            0 |            0 |            0 |            0 |            0 |            0 |            0 |            0 |            0 |            0 |            0 |            0 |            0 |            0 |            0 |
itlb.writebacks                                  0 |            0 |            0 |            0 |            0 |            0 |            0 |            0 |            0 |            0 |            0 |            0 |            0 |            0 |            0 |            0 |            0 |            0 |            0 |            0 |            0 |            0 |            0 |            0 |            0 |            0 |            0 |            0 |            0 |            0 |            0 |            0 |            0 |            0 |            0 |            0 |            0 |            0 |            0 |            0 |            0 |            0 |            0 |            0 |
itlb.invalidations                               0 |            0 |            0 |            0 |            0 |            0 |            0 |            0 |            0 |            0 |            0 |            0 |            0 |            0 |            0 |            0 |            0 |            0 |            0 |            0 |            0 |            0 |            0 |            0 |            0 |            0 |            0 |            0 |            0 |            0 |            0 |            0 |            0 |            0 |            0 |            0 |            0 |            0 |            0 |            0 |            0 |            0 |            0 |            0 |
itlb.miss_rate                              0.0000 |       0.0000 |       0.0000 |       0.0000 |       0.0000 |       0.0000 |       0.0000 |       0.0000 |       0.0000 |       0.0000 |       0.0000 |       0.0000 |       0.0000 |       0.0000 |       0.0000 |       0.0000 |       0.0000 |       0.0000 |       0.0000 |       0.0000 |       0.0000 |       0.0000 |       0.0000 |       0.0000 |       0.0000 |       0.0000 |       0.0000 |       0.0000 |       0.0000 |       0.0000 |       0.0000 |       0.0000 |       0.0000 |       0.0000 |       0.0000 |       0.0000 |       0.0000 |       0.0000 |       0.0000 |       0.0000 |       0.0000 |       0.0000 |       0.0000 |       0.0000 |
itlb.repl_rate                              0.0000 |       0.0000 |       0.0000 |       0.0000 |       0.0000 |       0.0000 |       0.0000 |       0.0000 |       0.0000 |       0.0000 |       0.0000 |       0.0000 |       0.0000 |       0.0000 |       0.0000 |       0.0000 |       0.0000 |       0.0000 |       0.0000 |       0.0000 |       0.0000 |       0.0000 |       0.0000 |       0.0000 |       0.0000 |       0.0000 |       0.0000 |       0.0000 |       0.0000 |       0.0000 |       0.0000 |       0.0000 |       0.0000 |       0.0000 |       0.0000 |       0.0000 |       0.0000 |       0.0000 |       0.0000 |       0.0000 |       0.0000 |       0.0000 |       0.0000 |       0.0000 |
itlb.wb_rate                                0.0000 |       0.0000 |       0.0000 |       0.0000 |       0.0000 |       0.0000 |       0.0000 |       0.0000 |       0.0000 |       0.0000 |       0.0000 |       0.0000 |       0.0000 |       0.0000 |       0.0000 |       0.0000 |       0.0000 |       0.0000 |       0.0000 |       0.0000 |       0.0000 |       0.0000 |       0.0000 |       0.0000 |       0.0000 |       0.0000 |       0.0000 |       0.0000 |       0.0000 |       0.0000 |       0.0000 |       0.0000 |       0.0000 |       0.0000 |       0.0000 |       0.0000 |       0.0000 |       0.0000 |       0.0000 |       0.0000 |       0.0000 |       0.0000 |       0.0000 |       0.0000 |
itlb.inv_rate                               0.0000 |       0.0000 |       0.0000 |       0.0000 |       0.0000 |       0.0000 |       0.0000 |       0.0000 |       0.0000 |       0.0000 |       0.0000 |       0.0000 |       0.0000 |       0.0000 |       0.0000 |       0.0000 |       0.0000 |       0.0000 |       0.0000 |       0.0000 |       0.0000 |       0.0000 |       0.0000 |       0.0000 |       0.0000 |       0.0000 |       0.0000 |       0.0000 |       0.0000 |       0.0000 |       0.0000 |       0.0000 |       0.0000 |       0.0000 |       0.0000 |       0.0000 |       0.0000 |       0.0000 |       0.0000 |       0.0000 |       0.0000 |       0.0000 |       0.0000 |       0.0000 |
dtlb.accesses                               140963 |       140963 |       140963 |       140963 |       292733 |       292733 |       292733 |       292733 |       616478 |       616478 |       616478 |       616478 |      1311315 |      1311315 |      1311315 |      1311315 |      2743650 |      2743650 |      2743650 |      2743650 |      5714896 |      5714896 |      5714896 |      5714896 |     12014734 |     12014734 |     12014734 |     12014734 |     25241513 |     25241513 |     25241513 |     25241513 |     52523231 |     52523231 |     52523231 |     52523231 |    109278193 |    109278193 |    109278193 |    109278193 |    228613117 |    228613117 |    228613117 |    228613117 |
dtlb.hits                                   140951 |       140951 |       140951 |       140951 |       292717 |       292717 |       292717 |       292717 |       616454 |       616454 |       616454 |       616454 |      1311275 |      1311275 |      1311275 |      1311275 |      2743578 |      2743578 |      2743578 |      2743578 |      5714735 |      5714735 |      5714735 |      5714735 |     12013895 |     12013895 |     12013895 |     12013895 |     25239086 |     25239086 |     25239086 |     25239086 |     52517756 |     52517756 |     52517756 |     52517756 |    109264881 |    109264881 |    109264881 |    109264881 |    228580387 |    228580387 |    228580387 |    228580387 |
dtlb.misses                                     12 |           12 |           12 |           12 |           16 |           16 |           16 |           16 |           24 |           24 |           24 |           24 |           40 |           40 |           40 |           40 |           72 |           72 |           72 |           72 |          161 |          161 |          161 |          161 |          839 |          839 |          839 |          839 |         2427 |         2427 |         2427 |         2427 |         5475 |         5475 |         5475 |         5475 |        13312 |        13312 |        13312 |        13312 |        32730 |        32730 |        32730 |        32730 |
dtlb.replacements                                0 |            0 |            0 |            0 |            0 |            0 |            0 |            0 |            0 |            0 |            0 |            0 |            0 |            0 |            0 |            0 |            0 |            0 |            0 |            0 |           33 |           33 |           33 |           33 |          711 |          711 |          711 |          711 |         2299 |         2299 |         2299 |         2299 |         5347 |         5347 |         5347 |         5347 |        13184 |        13184 |        13184 |        13184 |        32602 |        32602 |        32602 |        32602 |
dtlb.writebacks                                  0 |            0 |            0 |            0 |            0 |            0 |            0 |            0 |            0 |            0 |            0 |            0 |            0 |            0 |            0 |            0 |            0 |            0 |            0 |            0 |           31 |           31 |           31 |           31 |          709 |          709 |          709 |          709 |         2297 |         2297 |         2297 |         2297 |         5345 |         5345 |         5345 |         5345 |        13182 |        13182 |        13182 |        13182 |        32600 |        32600 |        32600 |        32600 |
dtlb.invalidations                               0 |            0 |            0 |            0 |            0 |            0 |            0 |            0 |            0 |            0 |            0 |            0 |            0 |            0 |            0 |            0 |            0 |            0 |            0 |            0 |            0 |            0 |            0 |            0 |            0 |            0 |            0 |            0 |            0 |            0 |            0 |            0 |            0 |            0 |            0 |            0 |            0 |            0 |            0 |            0 |            0 |            0 |            0 |            0 |
dtlb.miss_rate                              0.0001 |       0.0001 |       0.0001 |       0.0001 |       0.0001 |       0.0001 |       0.0001 |       0.0001 |       0.0000 |       0.0000 |       0.0000 |       0.0000 |       0.0000 |       0.0000 |       0.0000 |       0.0000 |       0.0000 |       0.0000 |       0.0000 |       0.0000 |       0.0000 |       0.0000 |       0.0000 |       0.0000 |       0.0001 |       0.0001 |       0.0001 |       0.0001 |       0.0001 |       0.0001 |       0.0001 |       0.0001 |       0.0001 |       0.0001 |       0.0001 |       0.0001 |       0.0001 |       0.0001 |       0.0001 |       0.0001 |       0.0001 |       0.0001 |       0.0001 |       0.0001 |
dtlb.repl_rate                              0.0000 |       0.0000 |       0.0000 |       0.0000 |       0.0000 |       0.0000 |       0.0000 |       0.0000 |       0.0000 |       0.0000 |       0.0000 |       0.0000 |       0.0000 |       0.0000 |       0.0000 |       0.0000 |       0.0000 |       0.0000 |       0.0000 |       0.0000 |       0.0000 |       0.0000 |       0.0000 |       0.0000 |       0.0001 |       0.0001 |       0.0001 |       0.0001 |       0.0001 |       0.0001 |       0.0001 |       0.0001 |       0.0001 |       0.0001 |       0.0001 |       0.0001 |       0.0001 |       0.0001 |       0.0001 |       0.0001 |       0.0001 |       0.0001 |       0.0001 |       0.0001 |
dtlb.wb_rate                                0.0000 |       0.0000 |       0.0000 |       0.0000 |       0.0000 |       0.0000 |       0.0000 |       0.0000 |       0.0000 |       0.0000 |       0.0000 |       0.0000 |       0.0000 |       0.0000 |       0.0000 |       0.0000 |       0.0000 |       0.0000 |       0.0000 |       0.0000 |       0.0000 |       0.0000 |       0.0000 |       0.0000 |       0.0001 |       0.0001 |       0.0001 |       0.0001 |       0.0001 |       0.0001 |       0.0001 |       0.0001 |       0.0001 |       0.0001 |       0.0001 |       0.0001 |       0.0001 |       0.0001 |       0.0001 |       0.0001 |       0.0001 |       0.0001 |       0.0001 |       0.0001 |
dtlb.inv_rate                               0.0000 |       0.0000 |       0.0000 |       0.0000 |       0.0000 |       0.0000 |       0.0000 |       0.0000 |       0.0000 |       0.0000 |       0.0000 |       0.0000 |       0.0000 |       0.0000 |       0.0000 |       0.0000 |       0.0000 |       0.0000 |       0.0000 |       0.0000 |       0.0000 |       0.0000 |       0.0000 |       0.0000 |       0.0000 |       0.0000 |       0.0000 |       0.0000 |       0.0000 |       0.0000 |       0.0000 |       0.0000 |       0.0000 |       0.0000 |       0.0000 |       0.0000 |       0.0000 |       0.0000 |       0.0000 |       0.0000 |       0.0000 |       0.0000 |       0.0000 |       0.0000 |
ld_text_base                            0x00400000 |   0x00400000 |   0x00400000 |   0x00400000 |   0x00400000 |   0x00400000 |   0x00400000 |   0x00400000 |   0x00400000 |   0x00400000 |   0x00400000 |   0x00400000 |   0x00400000 |   0x00400000 |   0x00400000 |   0x00400000 |   0x00400000 |   0x00400000 |   0x00400000 |   0x00400000 |   0x00400000 |   0x00400000 |   0x00400000 |   0x00400000 |   0x00400000 |   0x00400000 |   0x00400000 |   0x00400000 |   0x00400000 |   0x00400000 |   0x00400000 |   0x00400000 |   0x00400000 |   0x00400000 |   0x00400000 |   0x00400000 |   0x00400000 |   0x00400000 |   0x00400000 |   0x00400000 |   0x00400000 |   0x00400000 |   0x00400000 |   0x00400000 |
ld_text_size                                 73104 |        73104 |        73104 |        73104 |        73136 |        73136 |        73136 |        73136 |        73152 |        73152 |        73152 |        73152 |        73168 |        73168 |        73168 |        73168 |        73168 |        73168 |        73168 |        73168 |        73168 |        73168 |        73168 |        73168 |        73168 |        73168 |        73168 |        73168 |        73168 |        73168 |        73168 |        73168 |        73168 |        73168 |        73168 |        73168 |        73168 |        73168 |        73168 |        73168 |        73168 |        73168 |        73168 |        73168 |
ld_data_base                            0x10000000 |   0x10000000 |   0x10000000 |   0x10000000 |   0x10000000 |   0x10000000 |   0x10000000 |   0x10000000 |   0x10000000 |   0x10000000 |   0x10000000 |   0x10000000 |   0x10000000 |   0x10000000 |   0x10000000 |   0x10000000 |   0x10000000 |   0x10000000 |   0x10000000 |   0x10000000 |   0x10000000 |   0x10000000 |   0x10000000 |   0x10000000 |   0x10000000 |   0x10000000 |   0x10000000 |   0x10000000 |   0x10000000 |   0x10000000 |   0x10000000 |   0x10000000 |   0x10000000 |   0x10000000 |   0x10000000 |   0x10000000 |   0x10000000 |   0x10000000 |   0x10000000 |   0x10000000 |   0x10000000 |   0x10000000 |   0x10000000 |   0x10000000 |
ld_data_size                                  8192 |         8192 |         8192 |         8192 |         8192 |         8192 |         8192 |         8192 |         8192 |         8192 |         8192 |         8192 |         8192 |         8192 |         8192 |         8192 |         8192 |         8192 |         8192 |         8192 |         8192 |         8192 |         8192 |         8192 |         8192 |         8192 |         8192 |         8192 |         8192 |         8192 |         8192 |         8192 |         8192 |         8192 |         8192 |         8192 |         8192 |         8192 |         8192 |         8192 |         8192 |         8192 |         8192 |         8192 |
ld_stack_base                           0x7fffc000 |   0x7fffc000 |   0x7fffc000 |   0x7fffc000 |   0x7fffc000 |   0x7fffc000 |   0x7fffc000 |   0x7fffc000 |   0x7fffc000 |   0x7fffc000 |   0x7fffc000 |   0x7fffc000 |   0x7fffc000 |   0x7fffc000 |   0x7fffc000 |   0x7fffc000 |   0x7fffc000 |   0x7fffc000 |   0x7fffc000 |   0x7fffc000 |   0x7fffc000 |   0x7fffc000 |   0x7fffc000 |   0x7fffc000 |   0x7fffc000 |   0x7fffc000 |   0x7fffc000 |   0x7fffc000 |   0x7fffc000 |   0x7fffc000 |   0x7fffc000 |   0x7fffc000 |   0x7fffc000 |   0x7fffc000 |   0x7fffc000 |   0x7fffc000 |   0x7fffc000 |   0x7fffc000 |   0x7fffc000 |   0x7fffc000 |   0x7fffc000 |   0x7fffc000 |   0x7fffc000 |   0x7fffc000 |
ld_stack_size                                16384 |        16384 |        16384 |        16384 |        16384 |        16384 |        16384 |        16384 |        16384 |        16384 |        16384 |        16384 |        16384 |        16384 |        16384 |        16384 |        16384 |        16384 |        16384 |        16384 |        16384 |        16384 |        16384 |        16384 |        16384 |        16384 |        16384 |        16384 |        16384 |        16384 |        16384 |        16384 |        16384 |        16384 |        16384 |        16384 |        16384 |        16384 |        16384 |        16384 |        16384 |        16384 |        16384 |        16384 |
ld_prog_entry                           0x00400140 |   0x00400140 |   0x00400140 |   0x00400140 |   0x00400140 |   0x00400140 |   0x00400140 |   0x00400140 |   0x00400140 |   0x00400140 |   0x00400140 |   0x00400140 |   0x00400140 |   0x00400140 |   0x00400140 |   0x00400140 |   0x00400140 |   0x00400140 |   0x00400140 |   0x00400140 |   0x00400140 |   0x00400140 |   0x00400140 |   0x00400140 |   0x00400140 |   0x00400140 |   0x00400140 |   0x00400140 |   0x00400140 |   0x00400140 |   0x00400140 |   0x00400140 |   0x00400140 |   0x00400140 |   0x00400140 |   0x00400140 |   0x00400140 |   0x00400140 |   0x00400140 |   0x00400140 |   0x00400140 |   0x00400140 |   0x00400140 |   0x00400140 |
ld_environ_base                         0x7fff8000 |   0x7fff8000 |   0x7fff8000 |   0x7fff8000 |   0x7fff8000 |   0x7fff8000 |   0x7fff8000 |   0x7fff8000 |   0x7fff8000 |   0x7fff8000 |   0x7fff8000 |   0x7fff8000 |   0x7fff8000 |   0x7fff8000 |   0x7fff8000 |   0x7fff8000 |   0x7fff8000 |   0x7fff8000 |   0x7fff8000 |   0x7fff8000 |   0x7fff8000 |   0x7fff8000 |   0x7fff8000 |   0x7fff8000 |   0x7fff8000 |   0x7fff8000 |   0x7fff8000 |   0x7fff8000 |   0x7fff8000 |   0x7fff8000 |   0x7fff8000 |   0x7fff8000 |   0x7fff8000 |   0x7fff8000 |   0x7fff8000 |   0x7fff8000 |   0x7fff8000 |   0x7fff8000 |   0x7fff8000 |   0x7fff8000 |   0x7fff8000 |   0x7fff8000 |   0x7fff8000 |   0x7fff8000 |
ld_target_big_endian                             0 |            0 |            0 |            0 |            0 |            0 |            0 |            0 |            0 |            0 |            0 |            0 |            0 |            0 |            0 |            0 |            0 |            0 |            0 |            0 |            0 |            0 |            0 |            0 |            0 |            0 |            0 |            0 |            0 |            0 |            0 |            0 |            0 |            0 |            0 |            0 |            0 |            0 |            0 |            0 |            0 |            0 |            0 |            0 |
mem.page_count                                  30 |           30 |           30 |           30 |           34 |           34 |           34 |           34 |           42 |           42 |           42 |           42 |           58 |           58 |           58 |           58 |           90 |           90 |           90 |           90 |          154 |          154 |          154 |          154 |          282 |          282 |          282 |          282 |          538 |          538 |          538 |          538 |         1050 |         1050 |         1050 |         1050 |         2074 |         2074 |         2074 |         2074 |         4122 |         4122 |         4122 |         4122 |
mem.page_mem                                  120k |         120k |         120k |         120k |         136k |         136k |         136k |         136k |         168k |         168k |         168k |         168k |         232k |         232k |         232k |         232k |         360k |         360k |         360k |         360k |         616k |         616k |         616k |         616k |        1128k |        1128k |        1128k |        1128k |        2152k |        2152k |        2152k |        2152k |        4200k |        4200k |        4200k |        4200k |        8296k |        8296k |        8296k |        8296k |       16488k |       16488k |       16488k |       16488k |
mem.ptab_misses                                 30 |           30 |           30 |           30 |           34 |           34 |           34 |           34 |           42 |           42 |           42 |           42 |           58 |           58 |           58 |           58 |           90 |           90 |           90 |           90 |          154 |          154 |          154 |          154 |          282 |          282 |          282 |          282 |          538 |          538 |          538 |          538 |         1050 |         1050 |         1050 |         1050 |         2074 |         2074 |         2074 |         2074 |         4122 |         4122 |         4122 |         4122 |
mem.ptab_accesses                          2640372 |      2640372 |      2640372 |      2640372 |      5048576 |      5048576 |      5048576 |      5048576 |     10240626 |     10240626 |     10240626 |     10240626 |     21849068 |     21849068 |     21849068 |     21849068 |     45374418 |     45374418 |     45374418 |     45374418 |     94242542 |     94242542 |     94242542 |     94242542 |    199596362 |    199596362 |    199596362 |    199596362 |    423582088 |    423582088 |    423582088 |    423582088 |    883269864 |    883269864 |    883269864 |    883269864 |   1845439772 |   1845439772 |   1845439772 |   1845439772 |   3894686584 |   3894686584 |   3894686584 |   3894686584 |
mem.ptab_miss_rate                          0.0000 |       0.0000 |       0.0000 |       0.0000 |       0.0000 |       0.0000 |       0.0000 |       0.0000 |       0.0000 |       0.0000 |       0.0000 |       0.0000 |       0.0000 |       0.0000 |       0.0000 |       0.0000 |       0.0000 |       0.0000 |       0.0000 |       0.0000 |       0.0000 |       0.0000 |       0.0000 |       0.0000 |       0.0000 |       0.0000 |       0.0000 |       0.0000 |       0.0000 |       0.0000 |       0.0000 |       0.0000 |       0.0000 |       0.0000 |       0.0000 |       0.0000 |       0.0000 |       0.0000 |       0.0000 |       0.0000 |       0.0000 |       0.0000 |       0.0000 |       0.0000 |
-------------------------------------------------------------------------------------------------
sim-bpred                                     4096 |         4096 |         4096 |         4096 |         4096 |         4096 |         4096 |         8192 |         8192 |         8192 |         8192 |         8192 |         8192 |         8192 |        16384 |        16384 |        16384 |        16384 |        16384 |        16384 |        16384 |        32768 |        32768 |        32768 |        32768 |        32768 |        32768 |        32768 |        65536 |        65536 |        65536 |        65536 |        65536 |        65536 |        65536 |       131072 |       131072 |       131072 |       131072 |       131072 |       131072 |       131072 |       262144 |       262144 |       262144 |       262144 |       262144 |       262144 |       262144 |       524288 |       524288 |       524288 |       524288 |       524288 |       524288 |       524288 |      1048576 |      1048576 |      1048576 |      1048576 |      1048576 |      1048576 |      1048576 |      2097152 |      2097152 |      2097152 |      2097152 |      2097152 |      2097152 |      2097152 |      4194304 |      4194304 |      4194304 |      4194304 |      4194304 |      4194304 |      4194304 |
-bpred bimod -bpred:bimod 512
-bpred bimod -bpred:bimod 1024
-bpred bimod -bpred:bimod 2048
-bpred 2lev -bpred:2lev 1 512 10 1
-bpred 2lev -bpred:2lev 1 1024 10 1
-bpred 2lev -bpred:2lev 1 2048 10 1
-bpred 2lev -bpred:2lev 1 4096 10 1
-------------------------------------------------------------------------------------------------
sim_num_insn                                476303 |       476303 |       476303 |       476303 |       476303 |       476303 |       476303 |      1002421 |      1002421 |      1002421 |      1002421 |      1002421 |      1002421 |      1002421 |      2138537 |      2138537 |      2138537 |      2138537 |      2138537 |      2138537 |      2138537 |      4693205 |      4693205 |      4693205 |      4693205 |      4693205 |      4693205 |      4693205 |      9858375 |      9858375 |      9858375 |      9858375 |      9858375 |      9858375 |      9858375 |     20589783 |     20589783 |     20589783 |     20589783 |     20589783 |     20589783 |     20589783 |     43778319 |     43778319 |     43778319 |     43778319 |     43778319 |     43778319 |     43778319 |     93161361 |     93161361 |     93161361 |     93161361 |     93161361 |     93161361 |     93161361 |    194442446 |    194442446 |    194442446 |    194442446 |    194442446 |    194442446 |    194442446 |    406607442 |    406607442 |    406607442 |    406607442 |    406607442 |    406607442 |    406607442 |    859251683 |    859251683 |    859251683 |    859251683 |    859251683 |    859251683 |    859251683 |
sim_num_refs                                124497 |       124497 |       124497 |       124497 |       124497 |       124497 |       124497 |       259883 |       259883 |       259883 |       259883 |       259883 |       259883 |       259883 |       550860 |       550860 |       550860 |       550860 |       550860 |       550860 |       550860 |      1180161 |      1180161 |      1180161 |      1180161 |      1180161 |      1180161 |      1180161 |      2481424 |      2481424 |      2481424 |      2481424 |      2481424 |      2481424 |      2481424 |      5190526 |      5190526 |      5190526 |      5190526 |      5190526 |      5190526 |      5190526 |     10966076 |     10966076 |     10966076 |     10966076 |     10966076 |     10966076 |     10966076 |     23144279 |     23144279 |     23144279 |     23144279 |     23144279 |     23144279 |     23144279 |     48328845 |     48328845 |     48328845 |     48328845 |     48328845 |     48328845 |     48328845 |    100889503 |    100889503 |    100889503 |    100889503 |    100889503 |    100889503 |    100889503 |    211835819 |    211835819 |    211835819 |    211835819 |    211835819 |    211835819 |    211835819 |
sim_elapsed_time                                 1 |            1 |            1 |            1 |            1 |            1 |            1 |            1 |            1 |            1 |            1 |            1 |            1 |            1 |            1 |            1 |            1 |            1 |            1 |            1 |            1 |            1 |            1 |            1 |            1 |            1 |            1 |            1 |            1 |            1 |            1 |            1 |            1 |            2 |            1 |            2 |            3 |            2 |            3 |            2 |            3 |            3 |            5 |            5 |            6 |            5 |            5 |            6 |            5 |           12 |           11 |           11 |           12 |           12 |           11 |           12 |           24 |           24 |           24 |           24 |           24 |           24 |           24 |           49 |           50 |           49 |           51 |           50 |           50 |           50 |          104 |          105 |          104 |          106 |          106 |          106 |          107 |
sim_inst_rate                          476303.0000 |  476303.0000 |  476303.0000 |  476303.0000 |  476303.0000 |  476303.0000 |  476303.0000 | 1002421.0000 | 1002421.0000 | 1002421.0000 | 1002421.0000 | 1002421.0000 | 1002421.0000 | 1002421.0000 | 2138537.0000 | 2138537.0000 | 2138537.0000 | 2138537.0000 | 2138537.0000 | 2138537.0000 | 2138537.0000 | 4693205.0000 | 4693205.0000 | 4693205.0000 | 4693205.0000 | 4693205.0000 | 4693205.0000 | 4693205.0000 | 9858375.0000 | 9858375.0000 | 9858375.0000 | 9858375.0000 | 9858375.0000 | 4929187.5000 | 9858375.0000 |10294891.5000 | 6863261.0000 |10294891.5000 | 6863261.0000 |10294891.5000 | 6863261.0000 | 6863261.0000 | 8755663.8000 | 8755663.8000 | 7296386.5000 | 8755663.8000 | 8755663.8000 | 7296386.5000 | 8755663.8000 | 7763446.7500 | 8469214.6364 | 8469214.6364 | 7763446.7500 | 7763446.7500 | 8469214.6364 | 7763446.7500 | 8101768.5833 | 8101768.5833 | 8101768.5833 | 8101768.5833 | 8101768.5833 | 8101768.5833 | 8101768.5833 | 8298111.0612 | 8132148.8400 | 8298111.0612 | 7972694.9412 | 8132148.8400 | 8132148.8400 | 8132148.8400 | 8262035.4135 | 8183349.3619 | 8262035.4135 | 8106147.9528 | 8106147.9528 | 8106147.9528 | 8030389.5607 |
sim_num_branches                             78097 |        78097 |        78097 |        78097 |        78097 |        78097 |        78097 |       165686 |       165686 |       165686 |       165686 |       165686 |       165686 |       165686 |       355831 |       355831 |       355831 |       355831 |       355831 |       355831 |       355831 |       784185 |       784185 |       784185 |       784185 |       784185 |       784185 |       784185 |      1656215 |      1656215 |      1656215 |      1656215 |      1656215 |      1656215 |      1656215 |      3477583 |      3477583 |      3477583 |      3477583 |      3477583 |      3477583 |      3477583 |      7415076 |      7415076 |      7415076 |      7415076 |      7415076 |      7415076 |      7415076 |     15820359 |     15820359 |     15820359 |     15820359 |     15820359 |     15820359 |     15820359 |     33146608 |     33146608 |     33146608 |     33146608 |     33146608 |     33146608 |     33146608 |     69446233 |     69446233 |     69446233 |     69446233 |     69446233 |     69446233 |     69446233 |    147115347 |    147115347 |    147115347 |    147115347 |    147115347 |    147115347 |    147115347 |
sim_IPB                                     6.0989 |       6.0989 |       6.0989 |       6.0989 |       6.0989 |       6.0989 |       6.0989 |       6.0501 |       6.0501 |       6.0501 |       6.0501 |       6.0501 |       6.0501 |       6.0501 |       6.0100 |       6.0100 |       6.0100 |       6.0100 |       6.0100 |       6.0100 |       6.0100 |       5.9848 |       5.9848 |       5.9848 |       5.9848 |       5.9848 |       5.9848 |       5.9848 |       5.9524 |       5.9524 |       5.9524 |       5.9524 |       5.9524 |       5.9524 |       5.9524 |       5.9207 |       5.9207 |       5.9207 |       5.9207 |       5.9207 |       5.9207 |       5.9207 |       5.9040 |       5.9040 |       5.9040 |       5.9040 |       5.9040 |       5.9040 |       5.9040 |       5.8887 |       5.8887 |       5.8887 |       5.8887 |       5.8887 |       5.8887 |       5.8887 |       5.8661 |       5.8661 |       5.8661 |       5.8661 |       5.8661 |       5.8661 |       5.8661 |       5.8550 |       5.8550 |       5.8550 |       5.8550 |       5.8550 |       5.8550 |       5.8550 |       5.8407 |       5.8407 |       5.8407 |       5.8407 |       5.8407 |       5.8407 |       5.8407 |
bpred_bimod.lookups                          78097 |        78097 |        78097 |xxxxxxxxxxxxx |xxxxxxxxxxxxx |xxxxxxxxxxxxx |xxxxxxxxxxxxx |       165686 |       165686 |       165686 |xxxxxxxxxxxxx |xxxxxxxxxxxxx |xxxxxxxxxxxxx |xxxxxxxxxxxxx |       355831 |       355831 |       355831 |xxxxxxxxxxxxx |xxxxxxxxxxxxx |xxxxxxxxxxxxx |xxxxxxxxxxxxx |       784185 |       784185 |       784185 |xxxxxxxxxxxxx |xxxxxxxxxxxxx |xxxxxxxxxxxxx |xxxxxxxxxxxxx |      1656215 |      1656215 |      1656215 |xxxxxxxxxxxxx |xxxxxxxxxxxxx |xxxxxxxxxxxxx |xxxxxxxxxxxxx |      3477583 |      3477583 |      3477583 |xxxxxxxxxxxxx |xxxxxxxxxxxxx |xxxxxxxxxxxxx |xxxxxxxxxxxxx |      7415076 |      7415076 |      7415076 |xxxxxxxxxxxxx |xxxxxxxxxxxxx |xxxxxxxxxxxxx |xxxxxxxxxxxxx |     15820359 |     15820359 |     15820359 |xxxxxxxxxxxxx |xxxxxxxxxxxxx |xxxxxxxxxxxxx |xxxxxxxxxxxxx |     33146608 |     33146608 |     33146608 |xxxxxxxxxxxxx |xxxxxxxxxxxxx |xxxxxxxxxxxxx |xxxxxxxxxxxxx |     69446233 |     69446233 |     69446233 |xxxxxxxxxxxxx |xxxxxxxxxxxxx |xxxxxxxxxxxxx |xxxxxxxxxxxxx |    147115347 |    147115347 |    147115347 |
bpred_bimod.updates                          78097 |        78097 |        78097 |xxxxxxxxxxxxx |xxxxxxxxxxxxx |xxxxxxxxxxxxx |xxxxxxxxxxxxx |       165686 |       165686 |       165686 |xxxxxxxxxxxxx |xxxxxxxxxxxxx |xxxxxxxxxxxxx |xxxxxxxxxxxxx |       355831 |       355831 |       355831 |xxxxxxxxxxxxx |xxxxxxxxxxxxx |xxxxxxxxxxxxx |xxxxxxxxxxxxx |       784185 |       784185 |       784185 |xxxxxxxxxxxxx |xxxxxxxxxxxxx |xxxxxxxxxxxxx |xxxxxxxxxxxxx |      1656215 |      1656215 |      1656215 |xxxxxxxxxxxxx |xxxxxxxxxxxxx |xxxxxxxxxxxxx |xxxxxxxxxxxxx |      3477583 |      3477583 |      3477583 |xxxxxxxxxxxxx |xxxxxxxxxxxxx |xxxxxxxxxxxxx |xxxxxxxxxxxxx |      7415076 |      7415076 |      7415076 |xxxxxxxxxxxxx |xxxxxxxxxxxxx |xxxxxxxxxxxxx |xxxxxxxxxxxxx |     15820359 |     15820359 |     15820359 |xxxxxxxxxxxxx |xxxxxxxxxxxxx |xxxxxxxxxxxxx |xxxxxxxxxxxxx |     33146608 |     33146608 |     33146608 |xxxxxxxxxxxxx |xxxxxxxxxxxxx |xxxxxxxxxxxxx |xxxxxxxxxxxxx |     69446233 |     69446233 |     69446233 |xxxxxxxxxxxxx |xxxxxxxxxxxxx |xxxxxxxxxxxxx |xxxxxxxxxxxxx |    147115347 |    147115347 |    147115347 |
bpred_bimod.addr_hits                        56950 |        56949 |        56949 |xxxxxxxxxxxxx |xxxxxxxxxxxxx |xxxxxxxxxxxxx |xxxxxxxxxxxxx |       119636 |       119636 |       119640 |xxxxxxxxxxxxx |xxxxxxxxxxxxx |xxxxxxxxxxxxx |xxxxxxxxxxxxx |       256823 |       256825 |       256826 |xxxxxxxxxxxxx |xxxxxxxxxxxxx |xxxxxxxxxxxxx |xxxxxxxxxxxxx |       576433 |       576432 |       576433 |xxxxxxxxxxxxx |xxxxxxxxxxxxx |xxxxxxxxxxxxx |xxxxxxxxxxxxx |      1209804 |      1209803 |      1209803 |xxxxxxxxxxxxx |xxxxxxxxxxxxx |xxxxxxxxxxxxx |xxxxxxxxxxxxx |      2511323 |      2511322 |      2511322 |xxxxxxxxxxxxx |xxxxxxxxxxxxx |xxxxxxxxxxxxx |xxxxxxxxxxxxx |      5373152 |      5373151 |      5373152 |xxxxxxxxxxxxx |xxxxxxxxxxxxx |xxxxxxxxxxxxx |xxxxxxxxxxxxx |     11588568 |     11588567 |     11588567 |xxxxxxxxxxxxx |xxxxxxxxxxxxx |xxxxxxxxxxxxx |xxxxxxxxxxxxx |     24127253 |     24127252 |     24127253 |xxxxxxxxxxxxx |xxxxxxxxxxxxx |xxxxxxxxxxxxx |xxxxxxxxxxxxx |     50202258 |     50202257 |     50202258 |xxxxxxxxxxxxx |xxxxxxxxxxxxx |xxxxxxxxxxxxx |xxxxxxxxxxxxx |    107530412 |    107530411 |    107530412 |
bpred_bimod.dir_hits                         57062 |        57059 |        57060 |xxxxxxxxxxxxx |xxxxxxxxxxxxx |xxxxxxxxxxxxx |xxxxxxxxxxxxx |       119747 |       119744 |       119748 |xxxxxxxxxxxxx |xxxxxxxxxxxxx |xxxxxxxxxxxxx |xxxxxxxxxxxxx |       256937 |       256936 |       256938 |xxxxxxxxxxxxx |xxxxxxxxxxxxx |xxxxxxxxxxxxx |xxxxxxxxxxxxx |       576549 |       576545 |       576542 |xxxxxxxxxxxxx |xxxxxxxxxxxxx |xxxxxxxxxxxxx |xxxxxxxxxxxxx |      1209917 |      1209913 |      1209911 |xxxxxxxxxxxxx |xxxxxxxxxxxxx |xxxxxxxxxxxxx |xxxxxxxxxxxxx |      2511439 |      2511435 |      2511433 |xxxxxxxxxxxxx |xxxxxxxxxxxxx |xxxxxxxxxxxxx |xxxxxxxxxxxxx |      5373268 |      5373264 |      5373263 |xxxxxxxxxxxxx |xxxxxxxxxxxxx |xxxxxxxxxxxxx |xxxxxxxxxxxxx |     11588684 |     11588680 |     11588677 |xxxxxxxxxxxxx |xxxxxxxxxxxxx |xxxxxxxxxxxxx |xxxxxxxxxxxxx |     24127366 |     24127363 |     24127362 |xxxxxxxxxxxxx |xxxxxxxxxxxxx |xxxxxxxxxxxxx |xxxxxxxxxxxxx |     50202375 |     50202371 |     50202370 |xxxxxxxxxxxxx |xxxxxxxxxxxxx |xxxxxxxxxxxxx |xxxxxxxxxxxxx |    107530528 |    107530524 |    107530523 |
bpred_bimod.misses                           21035 |        21038 |        21037 |xxxxxxxxxxxxx |xxxxxxxxxxxxx |xxxxxxxxxxxxx |xxxxxxxxxxxxx |        45939 |        45942 |        45938 |xxxxxxxxxxxxx |xxxxxxxxxxxxx |xxxxxxxxxxxxx |xxxxxxxxxxxxx |        98894 |        98895 |        98893 |xxxxxxxxxxxxx |xxxxxxxxxxxxx |xxxxxxxxxxxxx |xxxxxxxxxxxxx |       207636 |       207640 |       207643 |xxxxxxxxxxxxx |xxxxxxxxxxxxx |xxxxxxxxxxxxx |xxxxxxxxxxxxx |       446298 |       446302 |       446304 |xxxxxxxxxxxxx |xxxxxxxxxxxxx |xxxxxxxxxxxxx |xxxxxxxxxxxxx |       966144 |       966148 |       966150 |xxxxxxxxxxxxx |xxxxxxxxxxxxx |xxxxxxxxxxxxx |xxxxxxxxxxxxx |      2041808 |      2041812 |      2041813 |xxxxxxxxxxxxx |xxxxxxxxxxxxx |xxxxxxxxxxxxx |xxxxxxxxxxxxx |      4231675 |      4231679 |      4231682 |xxxxxxxxxxxxx |xxxxxxxxxxxxx |xxxxxxxxxxxxx |xxxxxxxxxxxxx |      9019242 |      9019245 |      9019246 |xxxxxxxxxxxxx |xxxxxxxxxxxxx |xxxxxxxxxxxxx |xxxxxxxxxxxxx |     19243858 |     19243862 |     19243863 |xxxxxxxxxxxxx |xxxxxxxxxxxxx |xxxxxxxxxxxxx |xxxxxxxxxxxxx |     39584819 |     39584823 |     39584824 |
bpred_bimod.jr_hits                             64 |           64 |           64 |xxxxxxxxxxxxx |xxxxxxxxxxxxx |xxxxxxxxxxxxx |xxxxxxxxxxxxx |           64 |           64 |           64 |xxxxxxxxxxxxx |xxxxxxxxxxxxx |xxxxxxxxxxxxx |xxxxxxxxxxxxx |           64 |           64 |           64 |xxxxxxxxxxxxx |xxxxxxxxxxxxx |xxxxxxxxxxxxx |xxxxxxxxxxxxx |           64 |           64 |           64 |xxxxxxxxxxxxx |xxxxxxxxxxxxx |xxxxxxxxxxxxx |xxxxxxxxxxxxx |           64 |           64 |           64 |xxxxxxxxxxxxx |xxxxxxxxxxxxx |xxxxxxxxxxxxx |xxxxxxxxxxxxx |           64 |           64 |           64 |xxxxxxxxxxxxx |xxxxxxxxxxxxx |xxxxxxxxxxxxx |xxxxxxxxxxxxx |           64 |           64 |           64 |xxxxxxxxxxxxx |xxxxxxxxxxxxx |xxxxxxxxxxxxx |xxxxxxxxxxxxx |           64 |           64 |           64 |xxxxxxxxxxxxx |xxxxxxxxxxxxx |xxxxxxxxxxxxx |xxxxxxxxxxxxx |           64 |           64 |           64 |xxxxxxxxxxxxx |xxxxxxxxxxxxx |xxxxxxxxxxxxx |xxxxxxxxxxxxx |           64 |           64 |           64 |xxxxxxxxxxxxx |xxxxxxxxxxxxx |xxxxxxxxxxxxx |xxxxxxxxxxxxx |           64 |           64 |           64 |
bpred_bimod.jr_seen                             64 |           64 |           64 |xxxxxxxxxxxxx |xxxxxxxxxxxxx |xxxxxxxxxxxxx |xxxxxxxxxxxxx |           64 |           64 |           64 |xxxxxxxxxxxxx |xxxxxxxxxxxxx |xxxxxxxxxxxxx |xxxxxxxxxxxxx |           64 |           64 |           64 |xxxxxxxxxxxxx |xxxxxxxxxxxxx |xxxxxxxxxxxxx |xxxxxxxxxxxxx |           64 |           64 |           64 |xxxxxxxxxxxxx |xxxxxxxxxxxxx |xxxxxxxxxxxxx |xxxxxxxxxxxxx |           64 |           64 |           64 |xxxxxxxxxxxxx |xxxxxxxxxxxxx |xxxxxxxxxxxxx |xxxxxxxxxxxxx |           64 |           64 |           64 |xxxxxxxxxxxxx |xxxxxxxxxxxxx |xxxxxxxxxxxxx |xxxxxxxxxxxxx |           64 |           64 |           64 |xxxxxxxxxxxxx |xxxxxxxxxxxxx |xxxxxxxxxxxxx |xxxxxxxxxxxxx |           64 |           64 |           64 |xxxxxxxxxxxxx |xxxxxxxxxxxxx |xxxxxxxxxxxxx |xxxxxxxxxxxxx |           64 |           64 |           64 |xxxxxxxxxxxxx |xxxxxxxxxxxxx |xxxxxxxxxxxxx |xxxxxxxxxxxxx |           64 |           64 |           64 |xxxxxxxxxxxxx |xxxxxxxxxxxxx |xxxxxxxxxxxxx |xxxxxxxxxxxxx |           64 |           64 |           64 |
bpred_bimod.jr_non_ras_hits.PP                   0 |            0 |            0 |xxxxxxxxxxxxx |xxxxxxxxxxxxx |xxxxxxxxxxxxx |xxxxxxxxxxxxx |            0 |            0 |            0 |xxxxxxxxxxxxx |xxxxxxxxxxxxx |xxxxxxxxxxxxx |xxxxxxxxxxxxx |            0 |            0 |            0 |xxxxxxxxxxxxx |xxxxxxxxxxxxx |xxxxxxxxxxxxx |xxxxxxxxxxxxx |            0 |            0 |            0 |xxxxxxxxxxxxx |xxxxxxxxxxxxx |xxxxxxxxxxxxx |xxxxxxxxxxxxx |            0 |            0 |            0 |xxxxxxxxxxxxx |xxxxxxxxxxxxx |xxxxxxxxxxxxx |xxxxxxxxxxxxx |            0 |            0 |            0 |xxxxxxxxxxxxx |xxxxxxxxxxxxx |xxxxxxxxxxxxx |xxxxxxxxxxxxx |            0 |            0 |            0 |xxxxxxxxxxxxx |xxxxxxxxxxxxx |xxxxxxxxxxxxx |xxxxxxxxxxxxx |            0 |            0 |            0 |xxxxxxxxxxxxx |xxxxxxxxxxxxx |xxxxxxxxxxxxx |xxxxxxxxxxxxx |            0 |            0 |            0 |xxxxxxxxxxxxx |xxxxxxxxxxxxx |xxxxxxxxxxxxx |xxxxxxxxxxxxx |            0 |            0 |            0 |xxxxxxxxxxxxx |xxxxxxxxxxxxx |xxxxxxxxxxxxx |xxxxxxxxxxxxx |            0 |            0 |            0 |
bpred_bimod.jr_non_ras_seen.PP                   0 |            0 |            0 |xxxxxxxxxxxxx |xxxxxxxxxxxxx |xxxxxxxxxxxxx |xxxxxxxxxxxxx |            0 |            0 |            0 |xxxxxxxxxxxxx |xxxxxxxxxxxxx |xxxxxxxxxxxxx |xxxxxxxxxxxxx |            0 |            0 |            0 |xxxxxxxxxxxxx |xxxxxxxxxxxxx |xxxxxxxxxxxxx |xxxxxxxxxxxxx |            0 |            0 |            0 |xxxxxxxxxxxxx |xxxxxxxxxxxxx |xxxxxxxxxxxxx |xxxxxxxxxxxxx |            0 |            0 |            0 |xxxxxxxxxxxxx |xxxxxxxxxxxxx |xxxxxxxxxxxxx |xxxxxxxxxxxxx |            0 |            0 |            0 |xxxxxxxxxxxxx |xxxxxxxxxxxxx |xxxxxxxxxxxxx |xxxxxxxxxxxxx |            0 |            0 |            0 |xxxxxxxxxxxxx |xxxxxxxxxxxxx |xxxxxxxxxxxxx |xxxxxxxxxxxxx |            0 |            0 |            0 |xxxxxxxxxxxxx |xxxxxxxxxxxxx |xxxxxxxxxxxxx |xxxxxxxxxxxxx |            0 |            0 |            0 |xxxxxxxxxxxxx |xxxxxxxxxxxxx |xxxxxxxxxxxxx |xxxxxxxxxxxxx |            0 |            0 |            0 |xxxxxxxxxxxxx |xxxxxxxxxxxxx |xxxxxxxxxxxxx |xxxxxxxxxxxxx |            0 |            0 |            0 |
bpred_bimod.bpred_addr_rate                 0.7292 |       0.7292 |       0.7292 |xxxxxxxxxxxxx |xxxxxxxxxxxxx |xxxxxxxxxxxxx |xxxxxxxxxxxxx |       0.7221 |       0.7221 |       0.7221 |xxxxxxxxxxxxx |xxxxxxxxxxxxx |xxxxxxxxxxxxx |xxxxxxxxxxxxx |       0.7218 |       0.7218 |       0.7218 |xxxxxxxxxxxxx |xxxxxxxxxxxxx |xxxxxxxxxxxxx |xxxxxxxxxxxxx |       0.7351 |       0.7351 |       0.7351 |xxxxxxxxxxxxx |xxxxxxxxxxxxx |xxxxxxxxxxxxx |xxxxxxxxxxxxx |       0.7305 |       0.7305 |       0.7305 |xxxxxxxxxxxxx |xxxxxxxxxxxxx |xxxxxxxxxxxxx |xxxxxxxxxxxxx |       0.7221 |       0.7221 |       0.7221 |xxxxxxxxxxxxx |xxxxxxxxxxxxx |xxxxxxxxxxxxx |xxxxxxxxxxxxx |       0.7246 |       0.7246 |       0.7246 |xxxxxxxxxxxxx |xxxxxxxxxxxxx |xxxxxxxxxxxxx |xxxxxxxxxxxxx |       0.7325 |       0.7325 |       0.7325 |xxxxxxxxxxxxx |xxxxxxxxxxxxx |xxxxxxxxxxxxx |xxxxxxxxxxxxx |       0.7279 |       0.7279 |       0.7279 |xxxxxxxxxxxxx |xxxxxxxxxxxxx |xxxxxxxxxxxxx |xxxxxxxxxxxxx |       0.7229 |       0.7229 |       0.7229 |xxxxxxxxxxxxx |xxxxxxxxxxxxx |xxxxxxxxxxxxx |xxxxxxxxxxxxx |       0.7309 |       0.7309 |       0.7309 |
bpred_bimod.bpred_dir_rate                  0.7307 |       0.7306 |       0.7306 |xxxxxxxxxxxxx |xxxxxxxxxxxxx |xxxxxxxxxxxxx |xxxxxxxxxxxxx |       0.7227 |       0.7227 |       0.7227 |xxxxxxxxxxxxx |xxxxxxxxxxxxx |xxxxxxxxxxxxx |xxxxxxxxxxxxx |       0.7221 |       0.7221 |       0.7221 |xxxxxxxxxxxxx |xxxxxxxxxxxxx |xxxxxxxxxxxxx |xxxxxxxxxxxxx |       0.7352 |       0.7352 |       0.7352 |xxxxxxxxxxxxx |xxxxxxxxxxxxx |xxxxxxxxxxxxx |xxxxxxxxxxxxx |       0.7305 |       0.7305 |       0.7305 |xxxxxxxxxxxxx |xxxxxxxxxxxxx |xxxxxxxxxxxxx |xxxxxxxxxxxxx |       0.7222 |       0.7222 |       0.7222 |xxxxxxxxxxxxx |xxxxxxxxxxxxx |xxxxxxxxxxxxx |xxxxxxxxxxxxx |       0.7246 |       0.7246 |       0.7246 |xxxxxxxxxxxxx |xxxxxxxxxxxxx |xxxxxxxxxxxxx |xxxxxxxxxxxxx |       0.7325 |       0.7325 |       0.7325 |xxxxxxxxxxxxx |xxxxxxxxxxxxx |xxxxxxxxxxxxx |xxxxxxxxxxxxx |       0.7279 |       0.7279 |       0.7279 |xxxxxxxxxxxxx |xxxxxxxxxxxxx |xxxxxxxxxxxxx |xxxxxxxxxxxxx |       0.7229 |       0.7229 |       0.7229 |xxxxxxxxxxxxx |xxxxxxxxxxxxx |xxxxxxxxxxxxx |xxxxxxxxxxxxx |       0.7309 |       0.7309 |       0.7309 |
bpred_bimod.bpred_jr_rate                   1.0000 |       1.0000 |       1.0000 |xxxxxxxxxxxxx |xxxxxxxxxxxxx |xxxxxxxxxxxxx |xxxxxxxxxxxxx |       1.0000 |       1.0000 |       1.0000 |xxxxxxxxxxxxx |xxxxxxxxxxxxx |xxxxxxxxxxxxx |xxxxxxxxxxxxx |       1.0000 |       1.0000 |       1.0000 |xxxxxxxxxxxxx |xxxxxxxxxxxxx |xxxxxxxxxxxxx |xxxxxxxxxxxxx |       1.0000 |       1.0000 |       1.0000 |xxxxxxxxxxxxx |xxxxxxxxxxxxx |xxxxxxxxxxxxx |xxxxxxxxxxxxx |       1.0000 |       1.0000 |       1.0000 |xxxxxxxxxxxxx |xxxxxxxxxxxxx |xxxxxxxxxxxxx |xxxxxxxxxxxxx |       1.0000 |       1.0000 |       1.0000 |xxxxxxxxxxxxx |xxxxxxxxxxxxx |xxxxxxxxxxxxx |xxxxxxxxxxxxx |       1.0000 |       1.0000 |       1.0000 |xxxxxxxxxxxxx |xxxxxxxxxxxxx |xxxxxxxxxxxxx |xxxxxxxxxxxxx |       1.0000 |       1.0000 |       1.0000 |xxxxxxxxxxxxx |xxxxxxxxxxxxx |xxxxxxxxxxxxx |xxxxxxxxxxxxx |       1.0000 |       1.0000 |       1.0000 |xxxxxxxxxxxxx |xxxxxxxxxxxxx |xxxxxxxxxxxxx |xxxxxxxxxxxxx |       1.0000 |       1.0000 |       1.0000 |xxxxxxxxxxxxx |xxxxxxxxxxxxx |xxxxxxxxxxxxx |xxxxxxxxxxxxx |       1.0000 |       1.0000 |       1.0000 |
bpred_bimod.bpred_jr_non_ras_rate.PP       <error: |      <error: |      <error: |xxxxxxxxxxxxx |xxxxxxxxxxxxx |xxxxxxxxxxxxx |xxxxxxxxxxxxx |      <error: |      <error: |      <error: |xxxxxxxxxxxxx |xxxxxxxxxxxxx |xxxxxxxxxxxxx |xxxxxxxxxxxxx |      <error: |      <error: |      <error: |xxxxxxxxxxxxx |xxxxxxxxxxxxx |xxxxxxxxxxxxx |xxxxxxxxxxxxx |      <error: |      <error: |      <error: |xxxxxxxxxxxxx |xxxxxxxxxxxxx |xxxxxxxxxxxxx |xxxxxxxxxxxxx |      <error: |      <error: |      <error: |xxxxxxxxxxxxx |xxxxxxxxxxxxx |xxxxxxxxxxxxx |xxxxxxxxxxxxx |      <error: |      <error: |      <error: |xxxxxxxxxxxxx |xxxxxxxxxxxxx |xxxxxxxxxxxxx |xxxxxxxxxxxxx |      <error: |      <error: |      <error: |xxxxxxxxxxxxx |xxxxxxxxxxxxx |xxxxxxxxxxxxx |xxxxxxxxxxxxx |      <error: |      <error: |      <error: |xxxxxxxxxxxxx |xxxxxxxxxxxxx |xxxxxxxxxxxxx |xxxxxxxxxxxxx |      <error: |      <error: |      <error: |xxxxxxxxxxxxx |xxxxxxxxxxxxx |xxxxxxxxxxxxx |xxxxxxxxxxxxx |      <error: |      <error: |      <error: |xxxxxxxxxxxxx |xxxxxxxxxxxxx |xxxxxxxxxxxxx |xxxxxxxxxxxxx |      <error: |      <error: |      <error: |
bpred_bimod.retstack_pushes                     66 |           66 |           66 |xxxxxxxxxxxxx |xxxxxxxxxxxxx |xxxxxxxxxxxxx |xxxxxxxxxxxxx |           66 |           66 |           66 |xxxxxxxxxxxxx |xxxxxxxxxxxxx |xxxxxxxxxxxxx |xxxxxxxxxxxxx |           66 |           66 |           66 |xxxxxxxxxxxxx |xxxxxxxxxxxxx |xxxxxxxxxxxxx |xxxxxxxxxxxxx |           66 |           66 |           66 |xxxxxxxxxxxxx |xxxxxxxxxxxxx |xxxxxxxxxxxxx |xxxxxxxxxxxxx |           66 |           66 |           66 |xxxxxxxxxxxxx |xxxxxxxxxxxxx |xxxxxxxxxxxxx |xxxxxxxxxxxxx |           66 |           66 |           66 |xxxxxxxxxxxxx |xxxxxxxxxxxxx |xxxxxxxxxxxxx |xxxxxxxxxxxxx |           66 |           66 |           66 |xxxxxxxxxxxxx |xxxxxxxxxxxxx |xxxxxxxxxxxxx |xxxxxxxxxxxxx |           66 |           66 |           66 |xxxxxxxxxxxxx |xxxxxxxxxxxxx |xxxxxxxxxxxxx |xxxxxxxxxxxxx |           66 |           66 |           66 |xxxxxxxxxxxxx |xxxxxxxxxxxxx |xxxxxxxxxxxxx |xxxxxxxxxxxxx |           66 |           66 |           66 |xxxxxxxxxxxxx |xxxxxxxxxxxxx |xxxxxxxxxxxxx |xxxxxxxxxxxxx |           66 |           66 |           66 |
bpred_bimod.retstack_pops                       64 |           64 |           64 |xxxxxxxxxxxxx |xxxxxxxxxxxxx |xxxxxxxxxxxxx |xxxxxxxxxxxxx |           64 |           64 |           64 |xxxxxxxxxxxxx |xxxxxxxxxxxxx |xxxxxxxxxxxxx |xxxxxxxxxxxxx |           64 |           64 |           64 |xxxxxxxxxxxxx |xxxxxxxxxxxxx |xxxxxxxxxxxxx |xxxxxxxxxxxxx |           64 |           64 |           64 |xxxxxxxxxxxxx |xxxxxxxxxxxxx |xxxxxxxxxxxxx |xxxxxxxxxxxxx |           64 |           64 |           64 |xxxxxxxxxxxxx |xxxxxxxxxxxxx |xxxxxxxxxxxxx |xxxxxxxxxxxxx |           64 |           64 |           64 |xxxxxxxxxxxxx |xxxxxxxxxxxxx |xxxxxxxxxxxxx |xxxxxxxxxxxxx |           64 |           64 |           64 |xxxxxxxxxxxxx |xxxxxxxxxxxxx |xxxxxxxxxxxxx |xxxxxxxxxxxxx |           64 |           64 |           64 |xxxxxxxxxxxxx |xxxxxxxxxxxxx |xxxxxxxxxxxxx |xxxxxxxxxxxxx |           64 |           64 |           64 |xxxxxxxxxxxxx |xxxxxxxxxxxxx |xxxxxxxxxxxxx |xxxxxxxxxxxxx |           64 |           64 |           64 |xxxxxxxxxxxxx |xxxxxxxxxxxxx |xxxxxxxxxxxxx |xxxxxxxxxxxxx |           64 |           64 |           64 |
bpred_bimod.used_ras.PP                         64 |           64 |           64 |xxxxxxxxxxxxx |xxxxxxxxxxxxx |xxxxxxxxxxxxx |xxxxxxxxxxxxx |           64 |           64 |           64 |xxxxxxxxxxxxx |xxxxxxxxxxxxx |xxxxxxxxxxxxx |xxxxxxxxxxxxx |           64 |           64 |           64 |xxxxxxxxxxxxx |xxxxxxxxxxxxx |xxxxxxxxxxxxx |xxxxxxxxxxxxx |           64 |           64 |           64 |xxxxxxxxxxxxx |xxxxxxxxxxxxx |xxxxxxxxxxxxx |xxxxxxxxxxxxx |           64 |           64 |           64 |xxxxxxxxxxxxx |xxxxxxxxxxxxx |xxxxxxxxxxxxx |xxxxxxxxxxxxx |           64 |           64 |           64 |xxxxxxxxxxxxx |xxxxxxxxxxxxx |xxxxxxxxxxxxx |xxxxxxxxxxxxx |           64 |           64 |           64 |xxxxxxxxxxxxx |xxxxxxxxxxxxx |xxxxxxxxxxxxx |xxxxxxxxxxxxx |           64 |           64 |           64 |xxxxxxxxxxxxx |xxxxxxxxxxxxx |xxxxxxxxxxxxx |xxxxxxxxxxxxx |           64 |           64 |           64 |xxxxxxxxxxxxx |xxxxxxxxxxxxx |xxxxxxxxxxxxx |xxxxxxxxxxxxx |           64 |           64 |           64 |xxxxxxxxxxxxx |xxxxxxxxxxxxx |xxxxxxxxxxxxx |xxxxxxxxxxxxx |           64 |           64 |           64 |
bpred_bimod.ras_hits.PP                         64 |           64 |           64 |xxxxxxxxxxxxx |xxxxxxxxxxxxx |xxxxxxxxxxxxx |xxxxxxxxxxxxx |           64 |           64 |           64 |xxxxxxxxxxxxx |xxxxxxxxxxxxx |xxxxxxxxxxxxx |xxxxxxxxxxxxx |           64 |           64 |           64 |xxxxxxxxxxxxx |xxxxxxxxxxxxx |xxxxxxxxxxxxx |xxxxxxxxxxxxx |           64 |           64 |           64 |xxxxxxxxxxxxx |xxxxxxxxxxxxx |xxxxxxxxxxxxx |xxxxxxxxxxxxx |           64 |           64 |           64 |xxxxxxxxxxxxx |xxxxxxxxxxxxx |xxxxxxxxxxxxx |xxxxxxxxxxxxx |           64 |           64 |           64 |xxxxxxxxxxxxx |xxxxxxxxxxxxx |xxxxxxxxxxxxx |xxxxxxxxxxxxx |           64 |           64 |           64 |xxxxxxxxxxxxx |xxxxxxxxxxxxx |xxxxxxxxxxxxx |xxxxxxxxxxxxx |           64 |           64 |           64 |xxxxxxxxxxxxx |xxxxxxxxxxxxx |xxxxxxxxxxxxx |xxxxxxxxxxxxx |           64 |           64 |           64 |xxxxxxxxxxxxx |xxxxxxxxxxxxx |xxxxxxxxxxxxx |xxxxxxxxxxxxx |           64 |           64 |           64 |xxxxxxxxxxxxx |xxxxxxxxxxxxx |xxxxxxxxxxxxx |xxxxxxxxxxxxx |           64 |           64 |           64 |
bpred_bimod.ras_rate.PP                     1.0000 |       1.0000 |       1.0000 |xxxxxxxxxxxxx |xxxxxxxxxxxxx |xxxxxxxxxxxxx |xxxxxxxxxxxxx |       1.0000 |       1.0000 |       1.0000 |xxxxxxxxxxxxx |xxxxxxxxxxxxx |xxxxxxxxxxxxx |xxxxxxxxxxxxx |       1.0000 |       1.0000 |       1.0000 |xxxxxxxxxxxxx |xxxxxxxxxxxxx |xxxxxxxxxxxxx |xxxxxxxxxxxxx |       1.0000 |       1.0000 |       1.0000 |xxxxxxxxxxxxx |xxxxxxxxxxxxx |xxxxxxxxxxxxx |xxxxxxxxxxxxx |       1.0000 |       1.0000 |       1.0000 |xxxxxxxxxxxxx |xxxxxxxxxxxxx |xxxxxxxxxxxxx |xxxxxxxxxxxxx |       1.0000 |       1.0000 |       1.0000 |xxxxxxxxxxxxx |xxxxxxxxxxxxx |xxxxxxxxxxxxx |xxxxxxxxxxxxx |       1.0000 |       1.0000 |       1.0000 |xxxxxxxxxxxxx |xxxxxxxxxxxxx |xxxxxxxxxxxxx |xxxxxxxxxxxxx |       1.0000 |       1.0000 |       1.0000 |xxxxxxxxxxxxx |xxxxxxxxxxxxx |xxxxxxxxxxxxx |xxxxxxxxxxxxx |       1.0000 |       1.0000 |       1.0000 |xxxxxxxxxxxxx |xxxxxxxxxxxxx |xxxxxxxxxxxxx |xxxxxxxxxxxxx |       1.0000 |       1.0000 |       1.0000 |xxxxxxxxxxxxx |xxxxxxxxxxxxx |xxxxxxxxxxxxx |xxxxxxxxxxxxx |       1.0000 |       1.0000 |       1.0000 |
bpred_2lev.lookups                   xxxxxxxxxxxxx |xxxxxxxxxxxxx |xxxxxxxxxxxxx |        78097 |        78097 |        78097 |        78097 |xxxxxxxxxxxxx |xxxxxxxxxxxxx |xxxxxxxxxxxxx |       165686 |       165686 |       165686 |       165686 |xxxxxxxxxxxxx |xxxxxxxxxxxxx |xxxxxxxxxxxxx |       355831 |       355831 |       355831 |       355831 |xxxxxxxxxxxxx |xxxxxxxxxxxxx |xxxxxxxxxxxxx |       784185 |       784185 |       784185 |       784185 |xxxxxxxxxxxxx |xxxxxxxxxxxxx |xxxxxxxxxxxxx |      1656215 |      1656215 |      1656215 |      1656215 |xxxxxxxxxxxxx |xxxxxxxxxxxxx |xxxxxxxxxxxxx |      3477583 |      3477583 |      3477583 |      3477583 |xxxxxxxxxxxxx |xxxxxxxxxxxxx |xxxxxxxxxxxxx |      7415076 |      7415076 |      7415076 |      7415076 |xxxxxxxxxxxxx |xxxxxxxxxxxxx |xxxxxxxxxxxxx |     15820359 |     15820359 |     15820359 |     15820359 |xxxxxxxxxxxxx |xxxxxxxxxxxxx |xxxxxxxxxxxxx |     33146608 |     33146608 |     33146608 |     33146608 |xxxxxxxxxxxxx |xxxxxxxxxxxxx |xxxxxxxxxxxxx |     69446233 |     69446233 |     69446233 |     69446233 |xxxxxxxxxxxxx |xxxxxxxxxxxxx |xxxxxxxxxxxxx |    147115347 |    147115347 |    147115347 |    147115347 |
[...]
bpred_2lev.retstack_pops             xxxxxxxxxxxxx |xxxxxxxxxxxxx |xxxxxxxxxxxxx |           64 |           64 |           64 |           64 |xxxxxxxxxxxxx |xxxxxxxxxxxxx |xxxxxxxxxxxxx |           64 |           64 |           64 |           64 |xxxxxxxxxxxxx |xxxxxxxxxxxxx |xxxxxxxxxxxxx |           64 |           64 |           64 |           64 |xxxxxxxxxxxxx |xxxxxxxxxxxxx |xxxxxxxxxxxxx |           64 |           64 |           64 |           64 |xxxxxxxxxxxxx |xxxxxxxxxxxxx |xxxxxxxxxxxxx |           64 |           64 |           64 |           64 |xxxxxxxxxxxxx |xxxxxxxxxxxxx |xxxxxxxxxxxxx |           64 |           64 |           64 |           64 |xxxxxxxxxxxxx |xxxxxxxxxxxxx |xxxxxxxxxxxxx |           64 |           64 |           64 |           64 |xxxxxxxxxxxxx |xxxxxxxxxxxxx |xxxxxxxxxxxxx |           64 |           64 |           64 |           64 |xxxxxxxxxxxxx |xxxxxxxxxxxxx |xxxxxxxxxxxxx |           64 |           64 |           64 |           64 |xxxxxxxxxxxxx |xxxxxxxxxxxxx |xxxxxxxxxxxxx |           64 |           64 |           64 |           64 |xxxxxxxxxxxxx |xxxxxxxxxxxxx |xxxxxxxxxxxxx |           64 |           64 |           64 |           64 |
bpred_2lev.used_ras.PP               xxxxxxxxxxxxx |xxxxxxxxxxxxx |xxxxxxxxxxxxx |           64 |           64 |           64 |           64 |xxxxxxxxxxxxx |xxxxxxxxxxxxx |xxxxxxxxxxxxx |           64 |           64 |           64 |           64 |xxxxxxxxxxxxx |xxxxxxxxxxxxx |xxxxxxxxxxxxx |           64 |           64 |           64 |           64 |xxxxxxxxxxxxx |xxxxxxxxxxxxx |xxxxxxxxxxxxx |           64 |           64 |           64 |           64 |xxxxxxxxxxxxx |xxxxxxxxxxxxx |xxxxxxxxxxxxx |           64 |           64 |           64 |           64 |xxxxxxxxxxxxx |xxxxxxxxxxxxx |xxxxxxxxxxxxx |           64 |           64 |           64 |           64 |xxxxxxxxxxxxx |xxxxxxxxxxxxx |xxxxxxxxxxxxx |           64 |           64 |           64 |           64 |xxxxxxxxxxxxx |xxxxxxxxxxxxx |xxxxxxxxxxxxx |           64 |           64 |           64 |           64 |xxxxxxxxxxxxx |xxxxxxxxxxxxx |xxxxxxxxxxxxx |           64 |           64 |           64 |           64 |xxxxxxxxxxxxx |xxxxxxxxxxxxx |xxxxxxxxxxxxx |           64 |           64 |           64 |           64 |xxxxxxxxxxxxx |xxxxxxxxxxxxx |xxxxxxxxxxxxx |           64 |           64 |           64 |           64 |
bpred_2lev.ras_hits.PP               xxxxxxxxxxxxx |xxxxxxxxxxxxx |xxxxxxxxxxxxx |           64 |           64 |           64 |           64 |xxxxxxxxxxxxx |xxxxxxxxxxxxx |xxxxxxxxxxxxx |           64 |           64 |           64 |           64 |xxxxxxxxxxxxx |xxxxxxxxxxxxx |xxxxxxxxxxxxx |           64 |           64 |           64 |           64 |xxxxxxxxxxxxx |xxxxxxxxxxxxx |xxxxxxxxxxxxx |           64 |           64 |           64 |           64 |xxxxxxxxxxxxx |xxxxxxxxxxxxx |xxxxxxxxxxxxx |           64 |           64 |           64 |           64 |xxxxxxxxxxxxx |xxxxxxxxxxxxx |xxxxxxxxxxxxx |           64 |           64 |           64 |           64 |xxxxxxxxxxxxx |xxxxxxxxxxxxx |xxxxxxxxxxxxx |           64 |           64 |           64 |           64 |xxxxxxxxxxxxx |xxxxxxxxxxxxx |xxxxxxxxxxxxx |           64 |           64 |           64 |           64 |xxxxxxxxxxxxx |xxxxxxxxxxxxx |xxxxxxxxxxxxx |           64 |           64 |           64 |           64 |xxxxxxxxxxxxx |xxxxxxxxxxxxx |xxxxxxxxxxxxx |           64 |           64 |           64 |           64 |xxxxxxxxxxxxx |xxxxxxxxxxxxx |xxxxxxxxxxxxx |           64 |           64 |           64 |           64 |
bpred_2lev.ras_rate.PP               xxxxxxxxxxxxx |xxxxxxxxxxxxx |xxxxxxxxxxxxx |       1.0000 |       1.0000 |       1.0000 |       1.0000 |xxxxxxxxxxxxx |xxxxxxxxxxxxx |xxxxxxxxxxxxx |       1.0000 |       1.0000 |       1.0000 |       1.0000 |xxxxxxxxxxxxx |xxxxxxxxxxxxx |xxxxxxxxxxxxx |       1.0000 |       1.0000 |       1.0000 |       1.0000 |xxxxxxxxxxxxx |xxxxxxxxxxxxx |xxxxxxxxxxxxx |       1.0000 |       1.0000 |       1.0000 |       1.0000 |xxxxxxxxxxxxx |xxxxxxxxxxxxx |xxxxxxxxxxxxx |       1.0000 |       1.0000 |       1.0000 |       1.0000 |xxxxxxxxxxxxx |xxxxxxxxxxxxx |xxxxxxxxxxxxx |       1.0000 |       1.0000 |       1.0000 |       1.0000 |xxxxxxxxxxxxx |xxxxxxxxxxxxx |xxxxxxxxxxxxx |       1.0000 |       1.0000 |       1.0000 |       1.0000 |xxxxxxxxxxxxx |xxxxxxxxxxxxx |xxxxxxxxxxxxx |       1.0000 |       1.0000 |       1.0000 |       1.0000 |xxxxxxxxxxxxx |xxxxxxxxxxxxx |xxxxxxxxxxxxx |       1.0000 |       1.0000 |       1.0000 |       1.0000 |xxxxxxxxxxxxx |xxxxxxxxxxxxx |xxxxxxxxxxxxx |       1.0000 |       1.0000 |       1.0000 |       1.0000 |xxxxxxxxxxxxx |xxxxxxxxxxxxx |xxxxxxxxxxxxx |       1.0000 |       1.0000 |       1.0000 |       1.0000 |

Command list: 
	sslittle-na-sstrix-gcc -Wall -O3 -funroll-loops -finline-functions  -DRANDOM_SIZE=4096 -DOFFSET=7 -DSORT=memory_tuned_quicksort sorts/memory_tuned_quicksort969180192.c simpleMain.c -o memory_tuned_quicksort304012993
	sim-cache -cache:dl1 dl1:256:32:1:l -cache:dl2 dl2:131072:32:1:l -cache:il1 il1:256:32:1:l -cache:il2 dl2 memory_tuned_quicksort304012993
	sim-cache -cache:dl1 dl1:256:32:1:l -cache:dl2 dl2:65536:32:1:l -cache:il1 il1:256:32:1:l -cache:il2 dl2 memory_tuned_quicksort304012993
	sim-cache -cache:dl1 dl1:1:32:256:l -cache:dl2 dl2:1:32:131072:l -cache:il1 il1:1:32:256:l -cache:il2 dl2 memory_tuned_quicksort304012993
	sim-cache -cache:dl1 dl1:1:32:256:l -cache:dl2 dl2:1:32:65536:l -cache:il1 il1:1:32:256:l -cache:il2 dl2 memory_tuned_quicksort304012993
	sim-bpred -bpred bimod -bpred:bimod 512 memory_tuned_quicksort304012993
	sim-bpred -bpred bimod -bpred:bimod 1024 memory_tuned_quicksort304012993
	sim-bpred -bpred bimod -bpred:bimod 2048 memory_tuned_quicksort304012993
	sim-bpred -bpred 2lev -bpred:2lev 1 512 10 1 memory_tuned_quicksort304012993
	sim-bpred -bpred 2lev -bpred:2lev 1 1024 10 1 memory_tuned_quicksort304012993
	sim-bpred -bpred 2lev -bpred:2lev 1 2048 10 1 memory_tuned_quicksort304012993
	sim-bpred -bpred 2lev -bpred:2lev 1 4096 10 1 memory_tuned_quicksort304012993
	sslittle-na-sstrix-gcc -Wall -O3 -funroll-loops -finline-functions  -DRANDOM_SIZE=8192 -DOFFSET=7 -DSORT=memory_tuned_quicksort sorts/memory_tuned_quicksort969180192.c simpleMain.c -o memory_tuned_quicksort304012993
	sim-cache -cache:dl1 dl1:256:32:1:l -cache:dl2 dl2:131072:32:1:l -cache:il1 il1:256:32:1:l -cache:il2 dl2 memory_tuned_quicksort304012993
	sim-cache -cache:dl1 dl1:256:32:1:l -cache:dl2 dl2:65536:32:1:l -cache:il1 il1:256:32:1:l -cache:il2 dl2 memory_tuned_quicksort304012993
	sim-cache -cache:dl1 dl1:1:32:256:l -cache:dl2 dl2:1:32:131072:l -cache:il1 il1:1:32:256:l -cache:il2 dl2 memory_tuned_quicksort304012993
	sim-cache -cache:dl1 dl1:1:32:256:l -cache:dl2 dl2:1:32:65536:l -cache:il1 il1:1:32:256:l -cache:il2 dl2 memory_tuned_quicksort304012993
	sim-bpred -bpred bimod -bpred:bimod 512 memory_tuned_quicksort304012993
	sim-bpred -bpred bimod -bpred:bimod 1024 memory_tuned_quicksort304012993
	sim-bpred -bpred bimod -bpred:bimod 2048 memory_tuned_quicksort304012993
	sim-bpred -bpred 2lev -bpred:2lev 1 512 10 1 memory_tuned_quicksort304012993
	sim-bpred -bpred 2lev -bpred:2lev 1 1024 10 1 memory_tuned_quicksort304012993
	sim-bpred -bpred 2lev -bpred:2lev 1 2048 10 1 memory_tuned_quicksort304012993
	sim-bpred -bpred 2lev -bpred:2lev 1 4096 10 1 memory_tuned_quicksort304012993
	sslittle-na-sstrix-gcc -Wall -O3 -funroll-loops -finline-functions  -DRANDOM_SIZE=16384 -DOFFSET=7 -DSORT=memory_tuned_quicksort sorts/memory_tuned_quicksort969180192.c simpleMain.c -o memory_tuned_quicksort304012993
	sim-cache -cache:dl1 dl1:256:32:1:l -cache:dl2 dl2:131072:32:1:l -cache:il1 il1:256:32:1:l -cache:il2 dl2 memory_tuned_quicksort304012993
	sim-cache -cache:dl1 dl1:256:32:1:l -cache:dl2 dl2:65536:32:1:l -cache:il1 il1:256:32:1:l -cache:il2 dl2 memory_tuned_quicksort304012993
	sim-cache -cache:dl1 dl1:1:32:256:l -cache:dl2 dl2:1:32:131072:l -cache:il1 il1:1:32:256:l -cache:il2 dl2 memory_tuned_quicksort304012993
	sim-cache -cache:dl1 dl1:1:32:256:l -cache:dl2 dl2:1:32:65536:l -cache:il1 il1:1:32:256:l -cache:il2 dl2 memory_tuned_quicksort304012993
	sim-bpred -bpred bimod -bpred:bimod 512 memory_tuned_quicksort304012993
	sim-bpred -bpred bimod -bpred:bimod 1024 memory_tuned_quicksort304012993
	sim-bpred -bpred bimod -bpred:bimod 2048 memory_tuned_quicksort304012993
	sim-bpred -bpred 2lev -bpred:2lev 1 512 10 1 memory_tuned_quicksort304012993
	sim-bpred -bpred 2lev -bpred:2lev 1 1024 10 1 memory_tuned_quicksort304012993
	sim-bpred -bpred 2lev -bpred:2lev 1 2048 10 1 memory_tuned_quicksort304012993
	sim-bpred -bpred 2lev -bpred:2lev 1 4096 10 1 memory_tuned_quicksort304012993
	sslittle-na-sstrix-gcc -Wall -O3 -funroll-loops -finline-functions  -DRANDOM_SIZE=32768 -DOFFSET=7 -DSORT=memory_tuned_quicksort sorts/memory_tuned_quicksort969180192.c simpleMain.c -o memory_tuned_quicksort304012993
	sim-cache -cache:dl1 dl1:256:32:1:l -cache:dl2 dl2:131072:32:1:l -cache:il1 il1:256:32:1:l -cache:il2 dl2 memory_tuned_quicksort304012993
	sim-cache -cache:dl1 dl1:256:32:1:l -cache:dl2 dl2:65536:32:1:l -cache:il1 il1:256:32:1:l -cache:il2 dl2 memory_tuned_quicksort304012993
	sim-cache -cache:dl1 dl1:1:32:256:l -cache:dl2 dl2:1:32:131072:l -cache:il1 il1:1:32:256:l -cache:il2 dl2 memory_tuned_quicksort304012993
	sim-cache -cache:dl1 dl1:1:32:256:l -cache:dl2 dl2:1:32:65536:l -cache:il1 il1:1:32:256:l -cache:il2 dl2 memory_tuned_quicksort304012993
	sim-bpred -bpred bimod -bpred:bimod 512 memory_tuned_quicksort304012993
	sim-bpred -bpred bimod -bpred:bimod 1024 memory_tuned_quicksort304012993
	sim-bpred -bpred bimod -bpred:bimod 2048 memory_tuned_quicksort304012993
	sim-bpred -bpred 2lev -bpred:2lev 1 512 10 1 memory_tuned_quicksort304012993
	sim-bpred -bpred 2lev -bpred:2lev 1 1024 10 1 memory_tuned_quicksort304012993
	sim-bpred -bpred 2lev -bpred:2lev 1 2048 10 1 memory_tuned_quicksort304012993
	sim-bpred -bpred 2lev -bpred:2lev 1 4096 10 1 memory_tuned_quicksort304012993
	sslittle-na-sstrix-gcc -Wall -O3 -funroll-loops -finline-functions  -DRANDOM_SIZE=65536 -DOFFSET=7 -DSORT=memory_tuned_quicksort sorts/memory_tuned_quicksort969180192.c simpleMain.c -o memory_tuned_quicksort304012993
	sim-cache -cache:dl1 dl1:256:32:1:l -cache:dl2 dl2:131072:32:1:l -cache:il1 il1:256:32:1:l -cache:il2 dl2 memory_tuned_quicksort304012993
	sim-cache -cache:dl1 dl1:256:32:1:l -cache:dl2 dl2:65536:32:1:l -cache:il1 il1:256:32:1:l -cache:il2 dl2 memory_tuned_quicksort304012993
	sim-cache -cache:dl1 dl1:1:32:256:l -cache:dl2 dl2:1:32:131072:l -cache:il1 il1:1:32:256:l -cache:il2 dl2 memory_tuned_quicksort304012993
	sim-cache -cache:dl1 dl1:1:32:256:l -cache:dl2 dl2:1:32:65536:l -cache:il1 il1:1:32:256:l -cache:il2 dl2 memory_tuned_quicksort304012993
	sim-bpred -bpred bimod -bpred:bimod 512 memory_tuned_quicksort304012993
	sim-bpred -bpred bimod -bpred:bimod 1024 memory_tuned_quicksort304012993
	sim-bpred -bpred bimod -bpred:bimod 2048 memory_tuned_quicksort304012993
	sim-bpred -bpred 2lev -bpred:2lev 1 512 10 1 memory_tuned_quicksort304012993
	sim-bpred -bpred 2lev -bpred:2lev 1 1024 10 1 memory_tuned_quicksort304012993
	sim-bpred -bpred 2lev -bpred:2lev 1 2048 10 1 memory_tuned_quicksort304012993
	sim-bpred -bpred 2lev -bpred:2lev 1 4096 10 1 memory_tuned_quicksort304012993
	sslittle-na-sstrix-gcc -Wall -O3 -funroll-loops -finline-functions  -DRANDOM_SIZE=131072 -DOFFSET=7 -DSORT=memory_tuned_quicksort sorts/memory_tuned_quicksort969180192.c simpleMain.c -o memory_tuned_quicksort304012993
	sim-cache -cache:dl1 dl1:256:32:1:l -cache:dl2 dl2:131072:32:1:l -cache:il1 il1:256:32:1:l -cache:il2 dl2 memory_tuned_quicksort304012993
	sim-cache -cache:dl1 dl1:256:32:1:l -cache:dl2 dl2:65536:32:1:l -cache:il1 il1:256:32:1:l -cache:il2 dl2 memory_tuned_quicksort304012993
	sim-cache -cache:dl1 dl1:1:32:256:l -cache:dl2 dl2:1:32:131072:l -cache:il1 il1:1:32:256:l -cache:il2 dl2 memory_tuned_quicksort304012993
	sim-cache -cache:dl1 dl1:1:32:256:l -cache:dl2 dl2:1:32:65536:l -cache:il1 il1:1:32:256:l -cache:il2 dl2 memory_tuned_quicksort304012993
	sim-bpred -bpred bimod -bpred:bimod 512 memory_tuned_quicksort304012993
	sim-bpred -bpred bimod -bpred:bimod 1024 memory_tuned_quicksort304012993
	sim-bpred -bpred bimod -bpred:bimod 2048 memory_tuned_quicksort304012993
	sim-bpred -bpred 2lev -bpred:2lev 1 512 10 1 memory_tuned_quicksort304012993
	sim-bpred -bpred 2lev -bpred:2lev 1 1024 10 1 memory_tuned_quicksort304012993
	sim-bpred -bpred 2lev -bpred:2lev 1 2048 10 1 memory_tuned_quicksort304012993
	sim-bpred -bpred 2lev -bpred:2lev 1 4096 10 1 memory_tuned_quicksort304012993
	sslittle-na-sstrix-gcc -Wall -O3 -funroll-loops -finline-functions  -DRANDOM_SIZE=262144 -DOFFSET=7 -DSORT=memory_tuned_quicksort sorts/memory_tuned_quicksort969180192.c simpleMain.c -o memory_tuned_quicksort304012993
	sim-cache -cache:dl1 dl1:256:32:1:l -cache:dl2 dl2:131072:32:1:l -cache:il1 il1:256:32:1:l -cache:il2 dl2 memory_tuned_quicksort304012993
	sim-cache -cache:dl1 dl1:256:32:1:l -cache:dl2 dl2:65536:32:1:l -cache:il1 il1:256:32:1:l -cache:il2 dl2 memory_tuned_quicksort304012993
	sim-cache -cache:dl1 dl1:1:32:256:l -cache:dl2 dl2:1:32:131072:l -cache:il1 il1:1:32:256:l -cache:il2 dl2 memory_tuned_quicksort304012993
	sim-cache -cache:dl1 dl1:1:32:256:l -cache:dl2 dl2:1:32:65536:l -cache:il1 il1:1:32:256:l -cache:il2 dl2 memory_tuned_quicksort304012993
	sim-bpred -bpred bimod -bpred:bimod 512 memory_tuned_quicksort304012993
	sim-bpred -bpred bimod -bpred:bimod 1024 memory_tuned_quicksort304012993
	sim-bpred -bpred bimod -bpred:bimod 2048 memory_tuned_quicksort304012993
	sim-bpred -bpred 2lev -bpred:2lev 1 512 10 1 memory_tuned_quicksort304012993
	sim-bpred -bpred 2lev -bpred:2lev 1 1024 10 1 memory_tuned_quicksort304012993
	sim-bpred -bpred 2lev -bpred:2lev 1 2048 10 1 memory_tuned_quicksort304012993
	sim-bpred -bpred 2lev -bpred:2lev 1 4096 10 1 memory_tuned_quicksort304012993
	sslittle-na-sstrix-gcc -Wall -O3 -funroll-loops -finline-functions  -DRANDOM_SIZE=524288 -DOFFSET=7 -DSORT=memory_tuned_quicksort sorts/memory_tuned_quicksort969180192.c simpleMain.c -o memory_tuned_quicksort304012993
	sim-cache -cache:dl1 dl1:256:32:1:l -cache:dl2 dl2:131072:32:1:l -cache:il1 il1:256:32:1:l -cache:il2 dl2 memory_tuned_quicksort304012993
	sim-cache -cache:dl1 dl1:256:32:1:l -cache:dl2 dl2:65536:32:1:l -cache:il1 il1:256:32:1:l -cache:il2 dl2 memory_tuned_quicksort304012993
	sim-cache -cache:dl1 dl1:1:32:256:l -cache:dl2 dl2:1:32:131072:l -cache:il1 il1:1:32:256:l -cache:il2 dl2 memory_tuned_quicksort304012993
	sim-cache -cache:dl1 dl1:1:32:256:l -cache:dl2 dl2:1:32:65536:l -cache:il1 il1:1:32:256:l -cache:il2 dl2 memory_tuned_quicksort304012993
	sim-bpred -bpred bimod -bpred:bimod 512 memory_tuned_quicksort304012993
	sim-bpred -bpred bimod -bpred:bimod 1024 memory_tuned_quicksort304012993
	sim-bpred -bpred bimod -bpred:bimod 2048 memory_tuned_quicksort304012993
	sim-bpred -bpred 2lev -bpred:2lev 1 512 10 1 memory_tuned_quicksort304012993
	sim-bpred -bpred 2lev -bpred:2lev 1 1024 10 1 memory_tuned_quicksort304012993
	sim-bpred -bpred 2lev -bpred:2lev 1 2048 10 1 memory_tuned_quicksort304012993
	sim-bpred -bpred 2lev -bpred:2lev 1 4096 10 1 memory_tuned_quicksort304012993
	sslittle-na-sstrix-gcc -Wall -O3 -funroll-loops -finline-functions  -DRANDOM_SIZE=1048576 -DOFFSET=7 -DSORT=memory_tuned_quicksort sorts/memory_tuned_quicksort969180192.c simpleMain.c -o memory_tuned_quicksort304012993
	sim-cache -cache:dl1 dl1:256:32:1:l -cache:dl2 dl2:131072:32:1:l -cache:il1 il1:256:32:1:l -cache:il2 dl2 memory_tuned_quicksort304012993
	sim-cache -cache:dl1 dl1:256:32:1:l -cache:dl2 dl2:65536:32:1:l -cache:il1 il1:256:32:1:l -cache:il2 dl2 memory_tuned_quicksort304012993
	sim-cache -cache:dl1 dl1:1:32:256:l -cache:dl2 dl2:1:32:131072:l -cache:il1 il1:1:32:256:l -cache:il2 dl2 memory_tuned_quicksort304012993
	sim-cache -cache:dl1 dl1:1:32:256:l -cache:dl2 dl2:1:32:65536:l -cache:il1 il1:1:32:256:l -cache:il2 dl2 memory_tuned_quicksort304012993
	sim-bpred -bpred bimod -bpred:bimod 512 memory_tuned_quicksort304012993
	sim-bpred -bpred bimod -bpred:bimod 1024 memory_tuned_quicksort304012993
	sim-bpred -bpred bimod -bpred:bimod 2048 memory_tuned_quicksort304012993
	sim-bpred -bpred 2lev -bpred:2lev 1 512 10 1 memory_tuned_quicksort304012993
	sim-bpred -bpred 2lev -bpred:2lev 1 1024 10 1 memory_tuned_quicksort304012993
	sim-bpred -bpred 2lev -bpred:2lev 1 2048 10 1 memory_tuned_quicksort304012993
	sim-bpred -bpred 2lev -bpred:2lev 1 4096 10 1 memory_tuned_quicksort304012993
	sslittle-na-sstrix-gcc -Wall -O3 -funroll-loops -finline-functions  -DRANDOM_SIZE=2097152 -DOFFSET=7 -DSORT=memory_tuned_quicksort sorts/memory_tuned_quicksort969180192.c simpleMain.c -o memory_tuned_quicksort304012993
	sim-cache -cache:dl1 dl1:256:32:1:l -cache:dl2 dl2:131072:32:1:l -cache:il1 il1:256:32:1:l -cache:il2 dl2 memory_tuned_quicksort304012993
	sim-cache -cache:dl1 dl1:256:32:1:l -cache:dl2 dl2:65536:32:1:l -cache:il1 il1:256:32:1:l -cache:il2 dl2 memory_tuned_quicksort304012993
	sim-cache -cache:dl1 dl1:1:32:256:l -cache:dl2 dl2:1:32:131072:l -cache:il1 il1:1:32:256:l -cache:il2 dl2 memory_tuned_quicksort304012993
	sim-cache -cache:dl1 dl1:1:32:256:l -cache:dl2 dl2:1:32:65536:l -cache:il1 il1:1:32:256:l -cache:il2 dl2 memory_tuned_quicksort304012993
	sim-bpred -bpred bimod -bpred:bimod 512 memory_tuned_quicksort304012993
	sim-bpred -bpred bimod -bpred:bimod 1024 memory_tuned_quicksort304012993
	sim-bpred -bpred bimod -bpred:bimod 2048 memory_tuned_quicksort304012993
	sim-bpred -bpred 2lev -bpred:2lev 1 512 10 1 memory_tuned_quicksort304012993
	sim-bpred -bpred 2lev -bpred:2lev 1 1024 10 1 memory_tuned_quicksort304012993
	sim-bpred -bpred 2lev -bpred:2lev 1 2048 10 1 memory_tuned_quicksort304012993
	sim-bpred -bpred 2lev -bpred:2lev 1 4096 10 1 memory_tuned_quicksort304012993
	sslittle-na-sstrix-gcc -Wall -O3 -funroll-loops -finline-functions  -DRANDOM_SIZE=4194304 -DOFFSET=7 -DSORT=memory_tuned_quicksort sorts/memory_tuned_quicksort969180192.c simpleMain.c -o memory_tuned_quicksort304012993
	sim-cache -cache:dl1 dl1:256:32:1:l -cache:dl2 dl2:131072:32:1:l -cache:il1 il1:256:32:1:l -cache:il2 dl2 memory_tuned_quicksort304012993
	sim-cache -cache:dl1 dl1:256:32:1:l -cache:dl2 dl2:65536:32:1:l -cache:il1 il1:256:32:1:l -cache:il2 dl2 memory_tuned_quicksort304012993
	sim-cache -cache:dl1 dl1:1:32:256:l -cache:dl2 dl2:1:32:131072:l -cache:il1 il1:1:32:256:l -cache:il2 dl2 memory_tuned_quicksort304012993
	sim-cache -cache:dl1 dl1:1:32:256:l -cache:dl2 dl2:1:32:65536:l -cache:il1 il1:1:32:256:l -cache:il2 dl2 memory_tuned_quicksort304012993
	sim-bpred -bpred bimod -bpred:bimod 512 memory_tuned_quicksort304012993
	sim-bpred -bpred bimod -bpred:bimod 1024 memory_tuned_quicksort304012993
	sim-bpred -bpred bimod -bpred:bimod 2048 memory_tuned_quicksort304012993
	sim-bpred -bpred 2lev -bpred:2lev 1 512 10 1 memory_tuned_quicksort304012993
	sim-bpred -bpred 2lev -bpred:2lev 1 1024 10 1 memory_tuned_quicksort304012993
	sim-bpred -bpred 2lev -bpred:2lev 1 2048 10 1 memory_tuned_quicksort304012993
	sim-bpred -bpred 2lev -bpred:2lev 1 4096 10 1 memory_tuned_quicksort304012993
