Sun Jul  3 12:31:40 2005
Run as: "./do_simple -c random.org3 -o 3 multi_quicksort_seq"
-------------------------------------------------------------------------------------------------
sim-cache                                     4096 |         4096 |         4096 |         4096 |         8192 |         8192 |         8192 |         8192 |        16384 |        16384 |        16384 |        16384 |        32768 |        32768 |        32768 |        32768 |        65536 |        65536 |        65536 |        65536 |       131072 |       131072 |       131072 |       131072 |       262144 |       262144 |       262144 |       262144 |       524288 |       524288 |       524288 |       524288 |      1048576 |      1048576 |      1048576 |      1048576 |      2097152 |      2097152 |      2097152 |      2097152 |      4194304 |      4194304 |      4194304 |      4194304 |
-cache:dl1 dl1:256:32:1:l -cache:dl2 dl2:131072:32:1:l -cache:il1 il1:256:32:1:l -cache:il2 dl2
-cache:dl1 dl1:256:32:1:l -cache:dl2 dl2:65536:32:1:l -cache:il1 il1:256:32:1:l -cache:il2 dl2
-cache:dl1 dl1:1:32:256:l -cache:dl2 dl2:1:32:131072:l -cache:il1 il1:1:32:256:l -cache:il2 dl2
-cache:dl1 dl1:1:32:256:l -cache:dl2 dl2:1:32:65536:l -cache:il1 il1:1:32:256:l -cache:il2 dl2
-------------------------------------------------------------------------------------------------
sim_num_insn                                467011 |       467011 |       467011 |       467011 |       988884 |       988884 |       988884 |       988884 |      2141644 |      2141644 |      2141644 |      2141644 |      4576317 |      4576317 |      4576317 |      4576317 |      9793963 |      9793963 |      9793963 |      9793963 |     21081195 |     21081195 |     21081195 |     21081195 |     43878884 |     43878884 |     43878884 |     43878884 |     92747043 |     92747043 |     92747043 |     92747043 |    198775228 |    198775228 |    198775228 |    198775228 |    572048070 |    572048070 |    572048070 |    572048070 |   1401453174 |   1401453174 |   1401453174 |   1401453174 |
sim_num_refs                                122974 |       122974 |       122974 |       122974 |       257948 |       257948 |       257948 |       257948 |       549151 |       549151 |       549151 |       549151 |      1163983 |      1163983 |      1163983 |      1163983 |      2473931 |      2473931 |      2473931 |      2473931 |      5262133 |      5262133 |      5262133 |      5262133 |     10981012 |     10981012 |     10981012 |     10981012 |     23101455 |     23101455 |     23101455 |     23101455 |     48953454 |     48953454 |     48953454 |     48953454 |    133638449 |    133638449 |    133638449 |    133638449 |    305208595 |    305208595 |    305208595 |    305208595 |
sim_elapsed_time                                 1 |            1 |            8 |            3 |            1 |            1 |           10 |            5 |            1 |            1 |           15 |            8 |            2 |            1 |           26 |           14 |            3 |            2 |           48 |           24 |            6 |            6 |           88 |           44 |           11 |           12 |          163 |           76 |           25 |           25 |          280 |          109 |           52 |           53 |          391 |          138 |          151 |          152 |          497 |          244 |          364 |          364 |          725 |          470 |
sim_inst_rate                          467011.0000 |  467011.0000 |   58376.3750 |  155670.3333 |  988884.0000 |  988884.0000 |   98888.4000 |  197776.8000 | 2141644.0000 | 2141644.0000 |  142776.2667 |  267705.5000 | 2288158.5000 | 4576317.0000 |  176012.1923 |  326879.7857 | 3264654.3333 | 4896981.5000 |  204040.8958 |  408081.7917 | 3513532.5000 | 3513532.5000 |  239559.0341 |  479118.0682 | 3988989.4545 | 3656573.6667 |  269195.6074 |  577353.7368 | 3709881.7200 | 3709881.7200 |  331239.4393 |  850890.3028 | 3822600.5385 | 3750476.0000 |  508376.5422 | 1440400.2029 | 3788397.8146 | 3763474.1447 | 1151002.1529 | 2344459.3033 | 3850146.0824 | 3850146.0824 | 1933038.8607 | 2981815.2638 |
il1.accesses                                467011 |       467011 |       467011 |       467011 |       988884 |       988884 |       988884 |       988884 |      2141644 |      2141644 |      2141644 |      2141644 |      4576317 |      4576317 |      4576317 |      4576317 |      9793963 |      9793963 |      9793963 |      9793963 |     21081195 |     21081195 |     21081195 |     21081195 |     43878884 |     43878884 |     43878884 |     43878884 |     92747043 |     92747043 |     92747043 |     92747043 |    198775228 |    198775228 |    198775228 |    198775228 |    572048070 |    572048070 |    572048070 |    572048070 |   1401453174 |   1401453174 |   1401453174 |   1401453174 |
il1.hits                                    466542 |       466542 |       466573 |       466573 |       988413 |       988413 |       988444 |       988444 |      2141161 |      2141161 |      2141200 |      2141200 |      4575847 |      4575847 |      4575876 |      4575876 |      9793497 |      9793497 |      9793526 |      9793526 |     21080726 |     21080726 |     21080755 |     21080755 |     43878421 |     43878421 |     43878450 |     43878450 |     92746574 |     92746574 |     92746603 |     92746603 |    198774765 |    198774765 |    198774794 |    198774794 |    572047332 |    572047332 |    572047377 |    572047377 |   1401452436 |   1401452436 |   1401452481 |   1401452481 |
il1.misses                                     469 |          469 |          438 |          438 |          471 |          471 |          440 |          440 |          483 |          483 |          444 |          444 |          470 |          470 |          441 |          441 |          466 |          466 |          437 |          437 |          469 |          469 |          440 |          440 |          463 |          463 |          434 |          434 |          469 |          469 |          440 |          440 |          463 |          463 |          434 |          434 |          738 |          738 |          693 |          693 |          738 |          738 |          693 |          693 |
il1.replacements                               226 |          226 |          182 |          182 |          227 |          227 |          184 |          184 |          241 |          241 |          188 |          188 |          225 |          225 |          185 |          185 |          221 |          221 |          181 |          181 |          224 |          224 |          184 |          184 |          218 |          218 |          178 |          178 |          224 |          224 |          184 |          184 |          218 |          218 |          178 |          178 |          483 |          483 |          437 |          437 |          483 |          483 |          437 |          437 |
il1.writebacks                                   0 |            0 |            0 |            0 |            0 |            0 |            0 |            0 |            0 |            0 |            0 |            0 |            0 |            0 |            0 |            0 |            0 |            0 |            0 |            0 |            0 |            0 |            0 |            0 |            0 |            0 |            0 |            0 |            0 |            0 |            0 |            0 |            0 |            0 |            0 |            0 |            0 |            0 |            0 |            0 |            0 |            0 |            0 |            0 |
il1.invalidations                                0 |            0 |            0 |            0 |            0 |            0 |            0 |            0 |            0 |            0 |            0 |            0 |            0 |            0 |            0 |            0 |            0 |            0 |            0 |            0 |            0 |            0 |            0 |            0 |            0 |            0 |            0 |            0 |            0 |            0 |            0 |            0 |            0 |            0 |            0 |            0 |            0 |            0 |            0 |            0 |            0 |            0 |            0 |            0 |
il1.miss_rate                               0.0010 |       0.0010 |       0.0009 |       0.0009 |       0.0005 |       0.0005 |       0.0004 |       0.0004 |       0.0002 |       0.0002 |       0.0002 |       0.0002 |       0.0001 |       0.0001 |       0.0001 |       0.0001 |       0.0000 |       0.0000 |       0.0000 |       0.0000 |       0.0000 |       0.0000 |       0.0000 |       0.0000 |       0.0000 |       0.0000 |       0.0000 |       0.0000 |       0.0000 |       0.0000 |       0.0000 |       0.0000 |       0.0000 |       0.0000 |       0.0000 |       0.0000 |       0.0000 |       0.0000 |       0.0000 |       0.0000 |       0.0000 |       0.0000 |       0.0000 |       0.0000 |
il1.repl_rate                               0.0005 |       0.0005 |       0.0004 |       0.0004 |       0.0002 |       0.0002 |       0.0002 |       0.0002 |       0.0001 |       0.0001 |       0.0001 |       0.0001 |       0.0000 |       0.0000 |       0.0000 |       0.0000 |       0.0000 |       0.0000 |       0.0000 |       0.0000 |       0.0000 |       0.0000 |       0.0000 |       0.0000 |       0.0000 |       0.0000 |       0.0000 |       0.0000 |       0.0000 |       0.0000 |       0.0000 |       0.0000 |       0.0000 |       0.0000 |       0.0000 |       0.0000 |       0.0000 |       0.0000 |       0.0000 |       0.0000 |       0.0000 |       0.0000 |       0.0000 |       0.0000 |
il1.wb_rate                                 0.0000 |       0.0000 |       0.0000 |       0.0000 |       0.0000 |       0.0000 |       0.0000 |       0.0000 |       0.0000 |       0.0000 |       0.0000 |       0.0000 |       0.0000 |       0.0000 |       0.0000 |       0.0000 |       0.0000 |       0.0000 |       0.0000 |       0.0000 |       0.0000 |       0.0000 |       0.0000 |       0.0000 |       0.0000 |       0.0000 |       0.0000 |       0.0000 |       0.0000 |       0.0000 |       0.0000 |       0.0000 |       0.0000 |       0.0000 |       0.0000 |       0.0000 |       0.0000 |       0.0000 |       0.0000 |       0.0000 |       0.0000 |       0.0000 |       0.0000 |       0.0000 |
il1.inv_rate                                0.0000 |       0.0000 |       0.0000 |       0.0000 |       0.0000 |       0.0000 |       0.0000 |       0.0000 |       0.0000 |       0.0000 |       0.0000 |       0.0000 |       0.0000 |       0.0000 |       0.0000 |       0.0000 |       0.0000 |       0.0000 |       0.0000 |       0.0000 |       0.0000 |       0.0000 |       0.0000 |       0.0000 |       0.0000 |       0.0000 |       0.0000 |       0.0000 |       0.0000 |       0.0000 |       0.0000 |       0.0000 |       0.0000 |       0.0000 |       0.0000 |       0.0000 |       0.0000 |       0.0000 |       0.0000 |       0.0000 |       0.0000 |       0.0000 |       0.0000 |       0.0000 |
dl1.accesses                                139440 |       139440 |       139440 |       139440 |       290798 |       290798 |       290798 |       290798 |       614769 |       614769 |       614769 |       614769 |      1295137 |      1295137 |      1295137 |      1295137 |      2736157 |      2736157 |      2736157 |      2736157 |      5786503 |      5786503 |      5786503 |      5786503 |     12029670 |     12029670 |     12029670 |     12029670 |     25198689 |     25198689 |     25198689 |     25198689 |     53147840 |     53147840 |     53147840 |     53147840 |    142027140 |    142027140 |    142027140 |    142027140 |    321985894 |    321985894 |    321985894 |    321985894 |
dl1.hits                                    137312 |       137312 |       137354 |       137354 |       286071 |       286071 |       286156 |       286156 |       602994 |       602994 |       602921 |       602921 |      1267886 |      1267886 |      1267479 |      1267479 |      2668793 |      2668793 |      2668536 |      2668536 |      5626487 |      5626487 |      5627525 |      5627525 |     11689768 |     11689768 |     11691083 |     11691083 |     24430305 |     24430305 |     24437456 |     24437456 |     51375537 |     51375537 |     51394020 |     51394020 |    133893168 |    133893168 |    138368650 |    138368650 |    310078084 |    310078084 |    314376083 |    314376083 |
dl1.misses                                    2128 |         2128 |         2086 |         2086 |         4727 |         4727 |         4642 |         4642 |        11775 |        11775 |        11848 |        11848 |        27251 |        27251 |        27658 |        27658 |        67364 |        67364 |        67621 |        67621 |       160016 |       160016 |       158978 |       158978 |       339902 |       339902 |       338587 |       338587 |       768384 |       768384 |       761233 |       761233 |      1772303 |      1772303 |      1753820 |      1753820 |      8133972 |      8133972 |      3658490 |      3658490 |     11907810 |     11907810 |      7609811 |      7609811 |
dl1.replacements                              1872 |         1872 |         1830 |         1830 |         4471 |         4471 |         4386 |         4386 |        11519 |        11519 |        11592 |        11592 |        26995 |        26995 |        27402 |        27402 |        67108 |        67108 |        67365 |        67365 |       159760 |       159760 |       158722 |       158722 |       339646 |       339646 |       338331 |       338331 |       768128 |       768128 |       760977 |       760977 |      1772047 |      1772047 |      1753564 |      1753564 |      8133716 |      8133716 |      3658234 |      3658234 |     11907554 |     11907554 |      7609555 |      7609555 |
dl1.writebacks                                1832 |         1832 |         1816 |         1816 |         4383 |         4383 |         4351 |         4351 |        11013 |        11013 |        11147 |        11147 |        25743 |        25743 |        26145 |        26145 |        62250 |        62250 |        62887 |        62887 |       142752 |       142752 |       143222 |       143222 |       315743 |       315743 |       317346 |       317346 |       709269 |       709269 |       709560 |       709560 |      1571453 |      1571453 |      1571084 |      1571084 |      5275152 |      5275152 |      2962229 |      2962229 |      9965393 |      9965393 |      6162796 |      6162796 |
dl1.invalidations                                0 |            0 |            0 |            0 |            0 |            0 |            0 |            0 |            0 |            0 |            0 |            0 |            0 |            0 |            0 |            0 |            0 |            0 |            0 |            0 |            0 |            0 |            0 |            0 |            0 |            0 |            0 |            0 |            0 |            0 |            0 |            0 |            0 |            0 |            0 |            0 |            0 |            0 |            0 |            0 |            0 |            0 |            0 |            0 |
dl1.miss_rate                               0.0153 |       0.0153 |       0.0150 |       0.0150 |       0.0163 |       0.0163 |       0.0160 |       0.0160 |       0.0192 |       0.0192 |       0.0193 |       0.0193 |       0.0210 |       0.0210 |       0.0214 |       0.0214 |       0.0246 |       0.0246 |       0.0247 |       0.0247 |       0.0277 |       0.0277 |       0.0275 |       0.0275 |       0.0283 |       0.0283 |       0.0281 |       0.0281 |       0.0305 |       0.0305 |       0.0302 |       0.0302 |       0.0333 |       0.0333 |       0.0330 |       0.0330 |       0.0573 |       0.0573 |       0.0258 |       0.0258 |       0.0370 |       0.0370 |       0.0236 |       0.0236 |
dl1.repl_rate                               0.0134 |       0.0134 |       0.0131 |       0.0131 |       0.0154 |       0.0154 |       0.0151 |       0.0151 |       0.0187 |       0.0187 |       0.0189 |       0.0189 |       0.0208 |       0.0208 |       0.0212 |       0.0212 |       0.0245 |       0.0245 |       0.0246 |       0.0246 |       0.0276 |       0.0276 |       0.0274 |       0.0274 |       0.0282 |       0.0282 |       0.0281 |       0.0281 |       0.0305 |       0.0305 |       0.0302 |       0.0302 |       0.0333 |       0.0333 |       0.0330 |       0.0330 |       0.0573 |       0.0573 |       0.0258 |       0.0258 |       0.0370 |       0.0370 |       0.0236 |       0.0236 |
dl1.wb_rate                                 0.0131 |       0.0131 |       0.0130 |       0.0130 |       0.0151 |       0.0151 |       0.0150 |       0.0150 |       0.0179 |       0.0179 |       0.0181 |       0.0181 |       0.0199 |       0.0199 |       0.0202 |       0.0202 |       0.0228 |       0.0228 |       0.0230 |       0.0230 |       0.0247 |       0.0247 |       0.0248 |       0.0248 |       0.0262 |       0.0262 |       0.0264 |       0.0264 |       0.0281 |       0.0281 |       0.0282 |       0.0282 |       0.0296 |       0.0296 |       0.0296 |       0.0296 |       0.0371 |       0.0371 |       0.0209 |       0.0209 |       0.0309 |       0.0309 |       0.0191 |       0.0191 |
dl1.inv_rate                                0.0000 |       0.0000 |       0.0000 |       0.0000 |       0.0000 |       0.0000 |       0.0000 |       0.0000 |       0.0000 |       0.0000 |       0.0000 |       0.0000 |       0.0000 |       0.0000 |       0.0000 |       0.0000 |       0.0000 |       0.0000 |       0.0000 |       0.0000 |       0.0000 |       0.0000 |       0.0000 |       0.0000 |       0.0000 |       0.0000 |       0.0000 |       0.0000 |       0.0000 |       0.0000 |       0.0000 |       0.0000 |       0.0000 |       0.0000 |       0.0000 |       0.0000 |       0.0000 |       0.0000 |       0.0000 |       0.0000 |       0.0000 |       0.0000 |       0.0000 |       0.0000 |
dl2.accesses                                  4429 |         4429 |         4340 |         4340 |         9581 |         9581 |         9433 |         9433 |        23271 |        23271 |        23439 |        23439 |        53464 |        53464 |        54244 |        54244 |       130080 |       130080 |       130945 |       130945 |       303237 |       303237 |       302640 |       302640 |       656108 |       656108 |       656367 |       656367 |      1478122 |      1478122 |      1471233 |      1471233 |      3344219 |      3344219 |      3325338 |      3325338 |     13409862 |     13409862 |      6621412 |      6621412 |     21873941 |     21873941 |     13773300 |     13773300 |
dl2.hits                                      3002 |         3002 |         2949 |         2949 |         7639 |         7639 |         7528 |         7528 |        20314 |        20314 |        20524 |        20524 |        48465 |        48465 |        49282 |        49282 |       120988 |       120988 |       121890 |       121890 |       285949 |       285949 |       285390 |       285390 |       622442 |       622442 |       622739 |       622739 |      1411682 |      1411028 |      1404831 |      1343881 |      3211579 |      2924997 |      3016991 |      2849993 |     12062198 |     12027822 |      5319944 |      5240626 |     19162862 |     18979037 |     11050994 |     10812934 |
dl2.misses                                    1427 |         1427 |         1391 |         1391 |         1942 |         1942 |         1905 |         1905 |         2957 |         2957 |         2915 |         2915 |         4999 |         4999 |         4962 |         4962 |         9092 |         9092 |         9055 |         9055 |        17288 |        17288 |        17250 |        17250 |        33666 |        33666 |        33628 |        33628 |        66440 |        67094 |        66402 |       127352 |       132640 |       419222 |       308347 |       475345 |      1347664 |      1382040 |      1301468 |      1380786 |      2711079 |      2894904 |      2722306 |      2960366 |
dl2.replacements                               286 |          286 |            0 |            0 |          289 |          289 |            0 |            0 |          294 |          294 |            0 |            0 |          290 |          290 |            0 |            0 |          286 |          286 |            0 |            0 |          290 |          290 |            0 |            0 |          284 |          284 |            0 |            0 |          290 |         1558 |            0 |        61816 |         1568 |       353686 |       177275 |       409809 |      1216592 |      1316504 |      1170396 |      1315250 |      2580007 |      2829368 |      2591234 |      2894830 |
dl2.writebacks                                 154 |          154 |            0 |            0 |          153 |          153 |            0 |            0 |          154 |          154 |            0 |            0 |          152 |          152 |            0 |            0 |          152 |          152 |            0 |            0 |          152 |          152 |            0 |            0 |          152 |          152 |            0 |            0 |          152 |         1279 |            0 |        60667 |         1288 |       331159 |       171701 |       376778 |       733472 |       794067 |       713298 |       811505 |      1555831 |      1780370 |      1580672 |      1841814 |
dl2.invalidations                                0 |            0 |            0 |            0 |            0 |            0 |            0 |            0 |            0 |            0 |            0 |            0 |            0 |            0 |            0 |            0 |            0 |            0 |            0 |            0 |            0 |            0 |            0 |            0 |            0 |            0 |            0 |            0 |            0 |            0 |            0 |            0 |            0 |            0 |            0 |            0 |            0 |            0 |            0 |            0 |            0 |            0 |            0 |            0 |
dl2.miss_rate                               0.3222 |       0.3222 |       0.3205 |       0.3205 |       0.2027 |       0.2027 |       0.2020 |       0.2020 |       0.1271 |       0.1271 |       0.1244 |       0.1244 |       0.0935 |       0.0935 |       0.0915 |       0.0915 |       0.0699 |       0.0699 |       0.0692 |       0.0692 |       0.0570 |       0.0570 |       0.0570 |       0.0570 |       0.0513 |       0.0513 |       0.0512 |       0.0512 |       0.0449 |       0.0454 |       0.0451 |       0.0866 |       0.0397 |       0.1254 |       0.0927 |       0.1429 |       0.1005 |       0.1031 |       0.1966 |       0.2085 |       0.1239 |       0.1323 |       0.1977 |       0.2149 |
dl2.repl_rate                               0.0646 |       0.0646 |       0.0000 |       0.0000 |       0.0302 |       0.0302 |       0.0000 |       0.0000 |       0.0126 |       0.0126 |       0.0000 |       0.0000 |       0.0054 |       0.0054 |       0.0000 |       0.0000 |       0.0022 |       0.0022 |       0.0000 |       0.0000 |       0.0010 |       0.0010 |       0.0000 |       0.0000 |       0.0004 |       0.0004 |       0.0000 |       0.0000 |       0.0002 |       0.0011 |       0.0000 |       0.0420 |       0.0005 |       0.1058 |       0.0533 |       0.1232 |       0.0907 |       0.0982 |       0.1768 |       0.1986 |       0.1179 |       0.1293 |       0.1881 |       0.2102 |
dl2.wb_rate                                 0.0348 |       0.0348 |       0.0000 |       0.0000 |       0.0160 |       0.0160 |       0.0000 |       0.0000 |       0.0066 |       0.0066 |       0.0000 |       0.0000 |       0.0028 |       0.0028 |       0.0000 |       0.0000 |       0.0012 |       0.0012 |       0.0000 |       0.0000 |       0.0005 |       0.0005 |       0.0000 |       0.0000 |       0.0002 |       0.0002 |       0.0000 |       0.0000 |       0.0001 |       0.0009 |       0.0000 |       0.0412 |       0.0004 |       0.0990 |       0.0516 |       0.1133 |       0.0547 |       0.0592 |       0.1077 |       0.1226 |       0.0711 |       0.0814 |       0.1148 |       0.1337 |
dl2.inv_rate                                0.0000 |       0.0000 |       0.0000 |       0.0000 |       0.0000 |       0.0000 |       0.0000 |       0.0000 |       0.0000 |       0.0000 |       0.0000 |       0.0000 |       0.0000 |       0.0000 |       0.0000 |       0.0000 |       0.0000 |       0.0000 |       0.0000 |       0.0000 |       0.0000 |       0.0000 |       0.0000 |       0.0000 |       0.0000 |       0.0000 |       0.0000 |       0.0000 |       0.0000 |       0.0000 |       0.0000 |       0.0000 |       0.0000 |       0.0000 |       0.0000 |       0.0000 |       0.0000 |       0.0000 |       0.0000 |       0.0000 |       0.0000 |       0.0000 |       0.0000 |       0.0000 |
itlb.accesses                               467011 |       467011 |       467011 |       467011 |       988884 |       988884 |       988884 |       988884 |      2141644 |      2141644 |      2141644 |      2141644 |      4576317 |      4576317 |      4576317 |      4576317 |      9793963 |      9793963 |      9793963 |      9793963 |     21081195 |     21081195 |     21081195 |     21081195 |     43878884 |     43878884 |     43878884 |     43878884 |     92747043 |     92747043 |     92747043 |     92747043 |    198775228 |    198775228 |    198775228 |    198775228 |    572048070 |    572048070 |    572048070 |    572048070 |   1401453174 |   1401453174 |   1401453174 |   1401453174 |
itlb.hits                                   467000 |       467000 |       467000 |       467000 |       988873 |       988873 |       988873 |       988873 |      2141633 |      2141633 |      2141633 |      2141633 |      4576306 |      4576306 |      4576306 |      4576306 |      9793952 |      9793952 |      9793952 |      9793952 |     21081184 |     21081184 |     21081184 |     21081184 |     43878873 |     43878873 |     43878873 |     43878873 |     92747032 |     92747032 |     92747032 |     92747032 |    198775217 |    198775217 |    198775217 |    198775217 |    572048059 |    572048059 |    572048059 |    572048059 |   1401453163 |   1401453163 |   1401453163 |   1401453163 |
itlb.misses                                     11 |           11 |           11 |           11 |           11 |           11 |           11 |           11 |           11 |           11 |           11 |           11 |           11 |           11 |           11 |           11 |           11 |           11 |           11 |           11 |           11 |           11 |           11 |           11 |           11 |           11 |           11 |           11 |           11 |           11 |           11 |           11 |           11 |           11 |           11 |           11 |           11 |           11 |           11 |           11 |           11 |           11 |           11 |           11 |
itlb.replacements                                0 |            0 |            0 |            0 |            0 |            0 |            0 |            0 |            0 |            0 |            0 |            0 |            0 |            0 |            0 |            0 |            0 |            0 |            0 |            0 |            0 |            0 |            0 |            0 |            0 |            0 |            0 |            0 |            0 |            0 |            0 |            0 |            0 |            0 |            0 |            0 |            0 |            0 |            0 |            0 |            0 |            0 |            0 |            0 |
itlb.writebacks                                  0 |            0 |            0 |            0 |            0 |            0 |            0 |            0 |            0 |            0 |            0 |            0 |            0 |            0 |            0 |            0 |            0 |            0 |            0 |            0 |            0 |            0 |            0 |            0 |            0 |            0 |            0 |            0 |            0 |            0 |            0 |            0 |            0 |            0 |            0 |            0 |            0 |            0 |            0 |            0 |            0 |            0 |            0 |            0 |
itlb.invalidations                               0 |            0 |            0 |            0 |            0 |            0 |            0 |            0 |            0 |            0 |            0 |            0 |            0 |            0 |            0 |            0 |            0 |            0 |            0 |            0 |            0 |            0 |            0 |            0 |            0 |            0 |            0 |            0 |            0 |            0 |            0 |            0 |            0 |            0 |            0 |            0 |            0 |            0 |            0 |            0 |            0 |            0 |            0 |            0 |
itlb.miss_rate                              0.0000 |       0.0000 |       0.0000 |       0.0000 |       0.0000 |       0.0000 |       0.0000 |       0.0000 |       0.0000 |       0.0000 |       0.0000 |       0.0000 |       0.0000 |       0.0000 |       0.0000 |       0.0000 |       0.0000 |       0.0000 |       0.0000 |       0.0000 |       0.0000 |       0.0000 |       0.0000 |       0.0000 |       0.0000 |       0.0000 |       0.0000 |       0.0000 |       0.0000 |       0.0000 |       0.0000 |       0.0000 |       0.0000 |       0.0000 |       0.0000 |       0.0000 |       0.0000 |       0.0000 |       0.0000 |       0.0000 |       0.0000 |       0.0000 |       0.0000 |       0.0000 |
itlb.repl_rate                              0.0000 |       0.0000 |       0.0000 |       0.0000 |       0.0000 |       0.0000 |       0.0000 |       0.0000 |       0.0000 |       0.0000 |       0.0000 |       0.0000 |       0.0000 |       0.0000 |       0.0000 |       0.0000 |       0.0000 |       0.0000 |       0.0000 |       0.0000 |       0.0000 |       0.0000 |       0.0000 |       0.0000 |       0.0000 |       0.0000 |       0.0000 |       0.0000 |       0.0000 |       0.0000 |       0.0000 |       0.0000 |       0.0000 |       0.0000 |       0.0000 |       0.0000 |       0.0000 |       0.0000 |       0.0000 |       0.0000 |       0.0000 |       0.0000 |       0.0000 |       0.0000 |
itlb.wb_rate                                0.0000 |       0.0000 |       0.0000 |       0.0000 |       0.0000 |       0.0000 |       0.0000 |       0.0000 |       0.0000 |       0.0000 |       0.0000 |       0.0000 |       0.0000 |       0.0000 |       0.0000 |       0.0000 |       0.0000 |       0.0000 |       0.0000 |       0.0000 |       0.0000 |       0.0000 |       0.0000 |       0.0000 |       0.0000 |       0.0000 |       0.0000 |       0.0000 |       0.0000 |       0.0000 |       0.0000 |       0.0000 |       0.0000 |       0.0000 |       0.0000 |       0.0000 |       0.0000 |       0.0000 |       0.0000 |       0.0000 |       0.0000 |       0.0000 |       0.0000 |       0.0000 |
itlb.inv_rate                               0.0000 |       0.0000 |       0.0000 |       0.0000 |       0.0000 |       0.0000 |       0.0000 |       0.0000 |       0.0000 |       0.0000 |       0.0000 |       0.0000 |       0.0000 |       0.0000 |       0.0000 |       0.0000 |       0.0000 |       0.0000 |       0.0000 |       0.0000 |       0.0000 |       0.0000 |       0.0000 |       0.0000 |       0.0000 |       0.0000 |       0.0000 |       0.0000 |       0.0000 |       0.0000 |       0.0000 |       0.0000 |       0.0000 |       0.0000 |       0.0000 |       0.0000 |       0.0000 |       0.0000 |       0.0000 |       0.0000 |       0.0000 |       0.0000 |       0.0000 |       0.0000 |
dtlb.accesses                               139440 |       139440 |       139440 |       139440 |       290798 |       290798 |       290798 |       290798 |       614769 |       614769 |       614769 |       614769 |      1295137 |      1295137 |      1295137 |      1295137 |      2736157 |      2736157 |      2736157 |      2736157 |      5786503 |      5786503 |      5786503 |      5786503 |     12029670 |     12029670 |     12029670 |     12029670 |     25198689 |     25198689 |     25198689 |     25198689 |     53147840 |     53147840 |     53147840 |     53147840 |    142027140 |    142027140 |    142027140 |    142027140 |    321985894 |    321985894 |    321985894 |    321985894 |
dtlb.hits                                   139428 |       139428 |       139428 |       139428 |       290782 |       290782 |       290782 |       290782 |       614745 |       614745 |       614745 |       614745 |      1295097 |      1295097 |      1295097 |      1295097 |      2736085 |      2736085 |      2736085 |      2736085 |      5786336 |      5786336 |      5786336 |      5786336 |     12028888 |     12028888 |     12028888 |     12028888 |     25196516 |     25196516 |     25196516 |     25196516 |     53141488 |     53141488 |     53141488 |     53141488 |    142013057 |    142013057 |    142013057 |    142013057 |    321955475 |    321955475 |    321955475 |    321955475 |
dtlb.misses                                     12 |           12 |           12 |           12 |           16 |           16 |           16 |           16 |           24 |           24 |           24 |           24 |           40 |           40 |           40 |           40 |           72 |           72 |           72 |           72 |          167 |          167 |          167 |          167 |          782 |          782 |          782 |          782 |         2173 |         2173 |         2173 |         2173 |         6352 |         6352 |         6352 |         6352 |        14083 |        14083 |        14083 |        14083 |        30419 |        30419 |        30419 |        30419 |
dtlb.replacements                                0 |            0 |            0 |            0 |            0 |            0 |            0 |            0 |            0 |            0 |            0 |            0 |            0 |            0 |            0 |            0 |            0 |            0 |            0 |            0 |           39 |           39 |           39 |           39 |          654 |          654 |          654 |          654 |         2045 |         2045 |         2045 |         2045 |         6224 |         6224 |         6224 |         6224 |        13955 |        13955 |        13955 |        13955 |        30291 |        30291 |        30291 |        30291 |
dtlb.writebacks                                  0 |            0 |            0 |            0 |            0 |            0 |            0 |            0 |            0 |            0 |            0 |            0 |            0 |            0 |            0 |            0 |            0 |            0 |            0 |            0 |           37 |           37 |           37 |           37 |          652 |          652 |          652 |          652 |         2043 |         2043 |         2043 |         2043 |         6221 |         6221 |         6221 |         6221 |        11891 |        11891 |        11891 |        11891 |        26167 |        26167 |        26167 |        26167 |
dtlb.invalidations                               0 |            0 |            0 |            0 |            0 |            0 |            0 |            0 |            0 |            0 |            0 |            0 |            0 |            0 |            0 |            0 |            0 |            0 |            0 |            0 |            0 |            0 |            0 |            0 |            0 |            0 |            0 |            0 |            0 |            0 |            0 |            0 |            0 |            0 |            0 |            0 |            0 |            0 |            0 |            0 |            0 |            0 |            0 |            0 |
dtlb.miss_rate                              0.0001 |       0.0001 |       0.0001 |       0.0001 |       0.0001 |       0.0001 |       0.0001 |       0.0001 |       0.0000 |       0.0000 |       0.0000 |       0.0000 |       0.0000 |       0.0000 |       0.0000 |       0.0000 |       0.0000 |       0.0000 |       0.0000 |       0.0000 |       0.0000 |       0.0000 |       0.0000 |       0.0000 |       0.0001 |       0.0001 |       0.0001 |       0.0001 |       0.0001 |       0.0001 |       0.0001 |       0.0001 |       0.0001 |       0.0001 |       0.0001 |       0.0001 |       0.0001 |       0.0001 |       0.0001 |       0.0001 |       0.0001 |       0.0001 |       0.0001 |       0.0001 |
dtlb.repl_rate                              0.0000 |       0.0000 |       0.0000 |       0.0000 |       0.0000 |       0.0000 |       0.0000 |       0.0000 |       0.0000 |       0.0000 |       0.0000 |       0.0000 |       0.0000 |       0.0000 |       0.0000 |       0.0000 |       0.0000 |       0.0000 |       0.0000 |       0.0000 |       0.0000 |       0.0000 |       0.0000 |       0.0000 |       0.0001 |       0.0001 |       0.0001 |       0.0001 |       0.0001 |       0.0001 |       0.0001 |       0.0001 |       0.0001 |       0.0001 |       0.0001 |       0.0001 |       0.0001 |       0.0001 |       0.0001 |       0.0001 |       0.0001 |       0.0001 |       0.0001 |       0.0001 |
dtlb.wb_rate                                0.0000 |       0.0000 |       0.0000 |       0.0000 |       0.0000 |       0.0000 |       0.0000 |       0.0000 |       0.0000 |       0.0000 |       0.0000 |       0.0000 |       0.0000 |       0.0000 |       0.0000 |       0.0000 |       0.0000 |       0.0000 |       0.0000 |       0.0000 |       0.0000 |       0.0000 |       0.0000 |       0.0000 |       0.0001 |       0.0001 |       0.0001 |       0.0001 |       0.0001 |       0.0001 |       0.0001 |       0.0001 |       0.0001 |       0.0001 |       0.0001 |       0.0001 |       0.0001 |       0.0001 |       0.0001 |       0.0001 |       0.0001 |       0.0001 |       0.0001 |       0.0001 |
dtlb.inv_rate                               0.0000 |       0.0000 |       0.0000 |       0.0000 |       0.0000 |       0.0000 |       0.0000 |       0.0000 |       0.0000 |       0.0000 |       0.0000 |       0.0000 |       0.0000 |       0.0000 |       0.0000 |       0.0000 |       0.0000 |       0.0000 |       0.0000 |       0.0000 |       0.0000 |       0.0000 |       0.0000 |       0.0000 |       0.0000 |       0.0000 |       0.0000 |       0.0000 |       0.0000 |       0.0000 |       0.0000 |       0.0000 |       0.0000 |       0.0000 |       0.0000 |       0.0000 |       0.0000 |       0.0000 |       0.0000 |       0.0000 |       0.0000 |       0.0000 |       0.0000 |       0.0000 |
ld_text_base                            0x00400000 |   0x00400000 |   0x00400000 |   0x00400000 |   0x00400000 |   0x00400000 |   0x00400000 |   0x00400000 |   0x00400000 |   0x00400000 |   0x00400000 |   0x00400000 |   0x00400000 |   0x00400000 |   0x00400000 |   0x00400000 |   0x00400000 |   0x00400000 |   0x00400000 |   0x00400000 |   0x00400000 |   0x00400000 |   0x00400000 |   0x00400000 |   0x00400000 |   0x00400000 |   0x00400000 |   0x00400000 |   0x00400000 |   0x00400000 |   0x00400000 |   0x00400000 |   0x00400000 |   0x00400000 |   0x00400000 |   0x00400000 |   0x00400000 |   0x00400000 |   0x00400000 |   0x00400000 |   0x00400000 |   0x00400000 |   0x00400000 |   0x00400000 |
ld_text_size                                 78480 |        78480 |        78480 |        78480 |        78512 |        78512 |        78512 |        78512 |        78528 |        78528 |        78528 |        78528 |        78544 |        78544 |        78544 |        78544 |        78544 |        78544 |        78544 |        78544 |        78544 |        78544 |        78544 |        78544 |        78544 |        78544 |        78544 |        78544 |        78544 |        78544 |        78544 |        78544 |        78544 |        78544 |        78544 |        78544 |        78544 |        78544 |        78544 |        78544 |        78544 |        78544 |        78544 |        78544 |
ld_data_base                            0x10000000 |   0x10000000 |   0x10000000 |   0x10000000 |   0x10000000 |   0x10000000 |   0x10000000 |   0x10000000 |   0x10000000 |   0x10000000 |   0x10000000 |   0x10000000 |   0x10000000 |   0x10000000 |   0x10000000 |   0x10000000 |   0x10000000 |   0x10000000 |   0x10000000 |   0x10000000 |   0x10000000 |   0x10000000 |   0x10000000 |   0x10000000 |   0x10000000 |   0x10000000 |   0x10000000 |   0x10000000 |   0x10000000 |   0x10000000 |   0x10000000 |   0x10000000 |   0x10000000 |   0x10000000 |   0x10000000 |   0x10000000 |   0x10000000 |   0x10000000 |   0x10000000 |   0x10000000 |   0x10000000 |   0x10000000 |   0x10000000 |   0x10000000 |
ld_data_size                                  8192 |         8192 |         8192 |         8192 |         8192 |         8192 |         8192 |         8192 |         8192 |         8192 |         8192 |         8192 |         8192 |         8192 |         8192 |         8192 |         8192 |         8192 |         8192 |         8192 |         8192 |         8192 |         8192 |         8192 |         8192 |         8192 |         8192 |         8192 |         8192 |         8192 |         8192 |         8192 |         8192 |         8192 |         8192 |         8192 |         8192 |         8192 |         8192 |         8192 |         8192 |         8192 |         8192 |         8192 |
ld_stack_base                           0x7fffc000 |   0x7fffc000 |   0x7fffc000 |   0x7fffc000 |   0x7fffc000 |   0x7fffc000 |   0x7fffc000 |   0x7fffc000 |   0x7fffc000 |   0x7fffc000 |   0x7fffc000 |   0x7fffc000 |   0x7fffc000 |   0x7fffc000 |   0x7fffc000 |   0x7fffc000 |   0x7fffc000 |   0x7fffc000 |   0x7fffc000 |   0x7fffc000 |   0x7fffc000 |   0x7fffc000 |   0x7fffc000 |   0x7fffc000 |   0x7fffc000 |   0x7fffc000 |   0x7fffc000 |   0x7fffc000 |   0x7fffc000 |   0x7fffc000 |   0x7fffc000 |   0x7fffc000 |   0x7fffc000 |   0x7fffc000 |   0x7fffc000 |   0x7fffc000 |   0x7fffc000 |   0x7fffc000 |   0x7fffc000 |   0x7fffc000 |   0x7fffc000 |   0x7fffc000 |   0x7fffc000 |   0x7fffc000 |
ld_stack_size                                16384 |        16384 |        16384 |        16384 |        16384 |        16384 |        16384 |        16384 |        16384 |        16384 |        16384 |        16384 |        16384 |        16384 |        16384 |        16384 |        16384 |        16384 |        16384 |        16384 |        16384 |        16384 |        16384 |        16384 |        16384 |        16384 |        16384 |        16384 |        16384 |        16384 |        16384 |        16384 |        16384 |        16384 |        16384 |        16384 |        16384 |        16384 |        16384 |        16384 |        16384 |        16384 |        16384 |        16384 |
ld_prog_entry                           0x00400140 |   0x00400140 |   0x00400140 |   0x00400140 |   0x00400140 |   0x00400140 |   0x00400140 |   0x00400140 |   0x00400140 |   0x00400140 |   0x00400140 |   0x00400140 |   0x00400140 |   0x00400140 |   0x00400140 |   0x00400140 |   0x00400140 |   0x00400140 |   0x00400140 |   0x00400140 |   0x00400140 |   0x00400140 |   0x00400140 |   0x00400140 |   0x00400140 |   0x00400140 |   0x00400140 |   0x00400140 |   0x00400140 |   0x00400140 |   0x00400140 |   0x00400140 |   0x00400140 |   0x00400140 |   0x00400140 |   0x00400140 |   0x00400140 |   0x00400140 |   0x00400140 |   0x00400140 |   0x00400140 |   0x00400140 |   0x00400140 |   0x00400140 |
ld_environ_base                         0x7fff8000 |   0x7fff8000 |   0x7fff8000 |   0x7fff8000 |   0x7fff8000 |   0x7fff8000 |   0x7fff8000 |   0x7fff8000 |   0x7fff8000 |   0x7fff8000 |   0x7fff8000 |   0x7fff8000 |   0x7fff8000 |   0x7fff8000 |   0x7fff8000 |   0x7fff8000 |   0x7fff8000 |   0x7fff8000 |   0x7fff8000 |   0x7fff8000 |   0x7fff8000 |   0x7fff8000 |   0x7fff8000 |   0x7fff8000 |   0x7fff8000 |   0x7fff8000 |   0x7fff8000 |   0x7fff8000 |   0x7fff8000 |   0x7fff8000 |   0x7fff8000 |   0x7fff8000 |   0x7fff8000 |   0x7fff8000 |   0x7fff8000 |   0x7fff8000 |   0x7fff8000 |   0x7fff8000 |   0x7fff8000 |   0x7fff8000 |   0x7fff8000 |   0x7fff8000 |   0x7fff8000 |   0x7fff8000 |
ld_target_big_endian                             0 |            0 |            0 |            0 |            0 |            0 |            0 |            0 |            0 |            0 |            0 |            0 |            0 |            0 |            0 |            0 |            0 |            0 |            0 |            0 |            0 |            0 |            0 |            0 |            0 |            0 |            0 |            0 |            0 |            0 |            0 |            0 |            0 |            0 |            0 |            0 |            0 |            0 |            0 |            0 |            0 |            0 |            0 |            0 |
mem.page_count                                  32 |           32 |           32 |           32 |           36 |           36 |           36 |           36 |           44 |           44 |           44 |           44 |           60 |           60 |           60 |           60 |           92 |           92 |           92 |           92 |          156 |          156 |          156 |          156 |          284 |          284 |          284 |          284 |          540 |          540 |          540 |          540 |         1052 |         1052 |         1052 |         1052 |         4147 |         4147 |         4147 |         4147 |         8267 |         8267 |         8267 |         8267 |
mem.page_mem                                  128k |         128k |         128k |         128k |         144k |         144k |         144k |         144k |         176k |         176k |         176k |         176k |         240k |         240k |         240k |         240k |         368k |         368k |         368k |         368k |         624k |         624k |         624k |         624k |        1136k |        1136k |        1136k |        1136k |        2160k |        2160k |        2160k |        2160k |        4208k |        4208k |        4208k |        4208k |       16588k |       16588k |       16588k |       16588k |       33068k |       33068k |       33068k |       33068k |
mem.ptab_misses                                 32 |           32 |           32 |           32 |           36 |           36 |           36 |           36 |           44 |           44 |           44 |           44 |           60 |           60 |           60 |           60 |           92 |           92 |           92 |           92 |          156 |          156 |          156 |          156 |          284 |          284 |          284 |          284 |          540 |          540 |          540 |          540 |         1052 |         1052 |         1052 |         1052 |        22561 |        22561 |        22561 |        22561 |        26681 |        26681 |        26681 |        26681 |
mem.ptab_accesses                          2632468 |      2632468 |      2632468 |      2632468 |      5022868 |      5022868 |      5022868 |      5022868 |     10281946 |     10281946 |     10281946 |     10281946 |     21381470 |     21381470 |     21381470 |     21381470 |     45134094 |     45134094 |     45134094 |     45134094 |     96383714 |     96383714 |     96383714 |     96383714 |    200060804 |    200060804 |    200060804 |    200060804 |    421871478 |    421871478 |    421871478 |    421871478 |    901882520 |    901882520 |    901882520 |    901882520 |   2572732488 |   2572732488 |   2572732488 |   2572732488 |   6250270412 |   6250270412 |   6250270412 |   6250270412 |
mem.ptab_miss_rate                          0.0000 |       0.0000 |       0.0000 |       0.0000 |       0.0000 |       0.0000 |       0.0000 |       0.0000 |       0.0000 |       0.0000 |       0.0000 |       0.0000 |       0.0000 |       0.0000 |       0.0000 |       0.0000 |       0.0000 |       0.0000 |       0.0000 |       0.0000 |       0.0000 |       0.0000 |       0.0000 |       0.0000 |       0.0000 |       0.0000 |       0.0000 |       0.0000 |       0.0000 |       0.0000 |       0.0000 |       0.0000 |       0.0000 |       0.0000 |       0.0000 |       0.0000 |       0.0000 |       0.0000 |       0.0000 |       0.0000 |       0.0000 |       0.0000 |       0.0000 |       0.0000 |
-------------------------------------------------------------------------------------------------
sim-bpred                                     4096 |         4096 |         4096 |         4096 |         4096 |         4096 |         4096 |         8192 |         8192 |         8192 |         8192 |         8192 |         8192 |         8192 |        16384 |        16384 |        16384 |        16384 |        16384 |        16384 |        16384 |        32768 |        32768 |        32768 |        32768 |        32768 |        32768 |        32768 |        65536 |        65536 |        65536 |        65536 |        65536 |        65536 |        65536 |       131072 |       131072 |       131072 |       131072 |       131072 |       131072 |       131072 |       262144 |       262144 |       262144 |       262144 |       262144 |       262144 |       262144 |       524288 |       524288 |       524288 |       524288 |       524288 |       524288 |       524288 |      1048576 |      1048576 |      1048576 |      1048576 |      1048576 |      1048576 |      1048576 |      2097152 |      2097152 |      2097152 |      2097152 |      2097152 |      2097152 |      2097152 |      4194304 |      4194304 |      4194304 |      4194304 |      4194304 |      4194304 |      4194304 |
-bpred bimod -bpred:bimod 512
-bpred bimod -bpred:bimod 1024
-bpred bimod -bpred:bimod 2048
-bpred 2lev -bpred:2lev 1 512 10 1
-bpred 2lev -bpred:2lev 1 1024 10 1
-bpred 2lev -bpred:2lev 1 2048 10 1
-bpred 2lev -bpred:2lev 1 4096 10 1
-------------------------------------------------------------------------------------------------
sim_num_insn                                467011 |       467011 |       467011 |       467011 |       467011 |       467011 |       467011 |       988884 |       988884 |       988884 |       988884 |       988884 |       988884 |       988884 |      2141644 |      2141644 |      2141644 |      2141644 |      2141644 |      2141644 |      2141644 |      4576317 |      4576317 |      4576317 |      4576317 |      4576317 |      4576317 |      4576317 |      9793963 |      9793963 |      9793963 |      9793963 |      9793963 |      9793963 |      9793963 |     21081195 |     21081195 |     21081195 |     21081195 |     21081195 |     21081195 |     21081195 |     43878884 |     43878884 |     43878884 |     43878884 |     43878884 |     43878884 |     43878884 |     92747043 |     92747043 |     92747043 |     92747043 |     92747043 |     92747043 |     92747043 |    198775228 |    198775228 |    198775228 |    198775228 |    198775228 |    198775228 |    198775228 |    572048070 |    572048070 |    572048070 |    572048070 |    572048070 |    572048070 |    572048070 |   1401453174 |   1401453174 |   1401453174 |   1401453174 |   1401453174 |   1401453174 |   1401453174 |
sim_num_refs                                122974 |       122974 |       122974 |       122974 |       122974 |       122974 |       122974 |       257948 |       257948 |       257948 |       257948 |       257948 |       257948 |       257948 |       549151 |       549151 |       549151 |       549151 |       549151 |       549151 |       549151 |      1163983 |      1163983 |      1163983 |      1163983 |      1163983 |      1163983 |      1163983 |      2473931 |      2473931 |      2473931 |      2473931 |      2473931 |      2473931 |      2473931 |      5262133 |      5262133 |      5262133 |      5262133 |      5262133 |      5262133 |      5262133 |     10981012 |     10981012 |     10981012 |     10981012 |     10981012 |     10981012 |     10981012 |     23101455 |     23101455 |     23101455 |     23101455 |     23101455 |     23101455 |     23101455 |     48953454 |     48953454 |     48953454 |     48953454 |     48953454 |     48953454 |     48953454 |    133638449 |    133638449 |    133638449 |    133638449 |    133638449 |    133638449 |    133638449 |    305208595 |    305208595 |    305208595 |    305208595 |    305208595 |    305208595 |    305208595 |
sim_elapsed_time                                 1 |            1 |            1 |            1 |            1 |            1 |            1 |            1 |            1 |            1 |            1 |            1 |            1 |            1 |            1 |            1 |            1 |            1 |            1 |            1 |            1 |            1 |            1 |            1 |            1 |            1 |            1 |            1 |            1 |            1 |            1 |            1 |            2 |            1 |            1 |            3 |            2 |            3 |            3 |            2 |            3 |            2 |            5 |            5 |            6 |            5 |            5 |            6 |            5 |           11 |           11 |           11 |           11 |           11 |           11 |           12 |           24 |           24 |           23 |           24 |           24 |           24 |           24 |           72 |           71 |           71 |           73 |           72 |           72 |           73 |          178 |          177 |          177 |          182 |          182 |          182 |          187 |
sim_inst_rate                          467011.0000 |  467011.0000 |  467011.0000 |  467011.0000 |  467011.0000 |  467011.0000 |  467011.0000 |  988884.0000 |  988884.0000 |  988884.0000 |  988884.0000 |  988884.0000 |  988884.0000 |  988884.0000 | 2141644.0000 | 2141644.0000 | 2141644.0000 | 2141644.0000 | 2141644.0000 | 2141644.0000 | 2141644.0000 | 4576317.0000 | 4576317.0000 | 4576317.0000 | 4576317.0000 | 4576317.0000 | 4576317.0000 | 4576317.0000 | 9793963.0000 | 9793963.0000 | 9793963.0000 | 9793963.0000 | 4896981.5000 | 9793963.0000 | 9793963.0000 | 7027065.0000 |10540597.5000 | 7027065.0000 | 7027065.0000 |10540597.5000 | 7027065.0000 |10540597.5000 | 8775776.8000 | 8775776.8000 | 7313147.3333 | 8775776.8000 | 8775776.8000 | 7313147.3333 | 8775776.8000 | 8431549.3636 | 8431549.3636 | 8431549.3636 | 8431549.3636 | 8431549.3636 | 8431549.3636 | 7728920.2500 | 8282301.1667 | 8282301.1667 | 8642401.2174 | 8282301.1667 | 8282301.1667 | 8282301.1667 | 8282301.1667 | 7945112.0833 | 8057015.0704 | 8057015.0704 | 7836274.9315 | 7945112.0833 | 7945112.0833 | 7836274.9315 | 7873332.4382 | 7917814.5424 | 7917814.5424 | 7700292.1648 | 7700292.1648 | 7700292.1648 | 7494402.0000 |
sim_num_branches                             76543 |        76543 |        76543 |        76543 |        76543 |        76543 |        76543 |       163650 |       163650 |       163650 |       163650 |       163650 |       163650 |       163650 |       356608 |       356608 |       356608 |       356608 |       356608 |       356608 |       356608 |       765606 |       765606 |       765606 |       765606 |       765606 |       765606 |       765606 |      1647068 |      1647068 |      1647068 |      1647068 |      1647068 |      1647068 |      1647068 |      3555215 |      3555215 |      3555215 |      3555215 |      3555215 |      3555215 |      3555215 |      7433641 |      7433641 |      7433641 |      7433641 |      7433641 |      7433641 |      7433641 |     15763187 |     15763187 |     15763187 |     15763187 |     15763187 |     15763187 |     15763187 |     33829651 |     33829651 |     33829651 |     33829651 |     33829651 |     33829651 |     33829651 |    103077476 |    103077476 |    103077476 |    103077476 |    103077476 |    103077476 |    103077476 |    277603164 |    277603164 |    277603164 |    277603164 |    277603164 |    277603164 |    277603164 |
sim_IPB                                     6.1013 |       6.1013 |       6.1013 |       6.1013 |       6.1013 |       6.1013 |       6.1013 |       6.0427 |       6.0427 |       6.0427 |       6.0427 |       6.0427 |       6.0427 |       6.0427 |       6.0056 |       6.0056 |       6.0056 |       6.0056 |       6.0056 |       6.0056 |       6.0056 |       5.9774 |       5.9774 |       5.9774 |       5.9774 |       5.9774 |       5.9774 |       5.9774 |       5.9463 |       5.9463 |       5.9463 |       5.9463 |       5.9463 |       5.9463 |       5.9463 |       5.9297 |       5.9297 |       5.9297 |       5.9297 |       5.9297 |       5.9297 |       5.9297 |       5.9027 |       5.9027 |       5.9027 |       5.9027 |       5.9027 |       5.9027 |       5.9027 |       5.8838 |       5.8838 |       5.8838 |       5.8838 |       5.8838 |       5.8838 |       5.8838 |       5.8758 |       5.8758 |       5.8758 |       5.8758 |       5.8758 |       5.8758 |       5.8758 |       5.5497 |       5.5497 |       5.5497 |       5.5497 |       5.5497 |       5.5497 |       5.5497 |       5.0484 |       5.0484 |       5.0484 |       5.0484 |       5.0484 |       5.0484 |       5.0484 |
bpred_bimod.lookups                          76543 |        76543 |        76543 |xxxxxxxxxxxxx |xxxxxxxxxxxxx |xxxxxxxxxxxxx |xxxxxxxxxxxxx |       163650 |       163650 |       163650 |xxxxxxxxxxxxx |xxxxxxxxxxxxx |xxxxxxxxxxxxx |xxxxxxxxxxxxx |       356608 |       356608 |       356608 |xxxxxxxxxxxxx |xxxxxxxxxxxxx |xxxxxxxxxxxxx |xxxxxxxxxxxxx |       765606 |       765606 |       765606 |xxxxxxxxxxxxx |xxxxxxxxxxxxx |xxxxxxxxxxxxx |xxxxxxxxxxxxx |      1647068 |      1647068 |      1647068 |xxxxxxxxxxxxx |xxxxxxxxxxxxx |xxxxxxxxxxxxx |xxxxxxxxxxxxx |      3555215 |      3555215 |      3555215 |xxxxxxxxxxxxx |xxxxxxxxxxxxx |xxxxxxxxxxxxx |xxxxxxxxxxxxx |      7433641 |      7433641 |      7433641 |xxxxxxxxxxxxx |xxxxxxxxxxxxx |xxxxxxxxxxxxx |xxxxxxxxxxxxx |     15763187 |     15763187 |     15763187 |xxxxxxxxxxxxx |xxxxxxxxxxxxx |xxxxxxxxxxxxx |xxxxxxxxxxxxx |     33829651 |     33829651 |     33829651 |xxxxxxxxxxxxx |xxxxxxxxxxxxx |xxxxxxxxxxxxx |xxxxxxxxxxxxx |    103077476 |    103077476 |    103077476 |xxxxxxxxxxxxx |xxxxxxxxxxxxx |xxxxxxxxxxxxx |xxxxxxxxxxxxx |    277603164 |    277603164 |    277603164 |
bpred_bimod.updates                          76543 |        76543 |        76543 |xxxxxxxxxxxxx |xxxxxxxxxxxxx |xxxxxxxxxxxxx |xxxxxxxxxxxxx |       163650 |       163650 |       163650 |xxxxxxxxxxxxx |xxxxxxxxxxxxx |xxxxxxxxxxxxx |xxxxxxxxxxxxx |       356608 |       356608 |       356608 |xxxxxxxxxxxxx |xxxxxxxxxxxxx |xxxxxxxxxxxxx |xxxxxxxxxxxxx |       765606 |       765606 |       765606 |xxxxxxxxxxxxx |xxxxxxxxxxxxx |xxxxxxxxxxxxx |xxxxxxxxxxxxx |      1647068 |      1647068 |      1647068 |xxxxxxxxxxxxx |xxxxxxxxxxxxx |xxxxxxxxxxxxx |xxxxxxxxxxxxx |      3555215 |      3555215 |      3555215 |xxxxxxxxxxxxx |xxxxxxxxxxxxx |xxxxxxxxxxxxx |xxxxxxxxxxxxx |      7433641 |      7433641 |      7433641 |xxxxxxxxxxxxx |xxxxxxxxxxxxx |xxxxxxxxxxxxx |xxxxxxxxxxxxx |     15763187 |     15763187 |     15763187 |xxxxxxxxxxxxx |xxxxxxxxxxxxx |xxxxxxxxxxxxx |xxxxxxxxxxxxx |     33829651 |     33829651 |     33829651 |xxxxxxxxxxxxx |xxxxxxxxxxxxx |xxxxxxxxxxxxx |xxxxxxxxxxxxx |    103077476 |    103077476 |    103077476 |xxxxxxxxxxxxx |xxxxxxxxxxxxx |xxxxxxxxxxxxx |xxxxxxxxxxxxx |    277603164 |    277603164 |    277603164 |
bpred_bimod.addr_hits                        54918 |        54917 |        54917 |xxxxxxxxxxxxx |xxxxxxxxxxxxx |xxxxxxxxxxxxx |xxxxxxxxxxxxx |       116564 |       116561 |       116560 |xxxxxxxxxxxxx |xxxxxxxxxxxxx |xxxxxxxxxxxxx |xxxxxxxxxxxxx |       256991 |       256990 |       256991 |xxxxxxxxxxxxx |xxxxxxxxxxxxx |xxxxxxxxxxxxx |xxxxxxxxxxxxx |       550703 |       550703 |       550704 |xxxxxxxxxxxxx |xxxxxxxxxxxxx |xxxxxxxxxxxxx |xxxxxxxxxxxxx |      1198726 |      1198725 |      1198726 |xxxxxxxxxxxxx |xxxxxxxxxxxxx |xxxxxxxxxxxxx |xxxxxxxxxxxxx |      2605761 |      2605760 |      2605761 |xxxxxxxxxxxxx |xxxxxxxxxxxxx |xxxxxxxxxxxxx |xxxxxxxxxxxxx |      5407778 |      5407779 |      5407780 |xxxxxxxxxxxxx |xxxxxxxxxxxxx |xxxxxxxxxxxxx |xxxxxxxxxxxxx |     11509175 |     11509175 |     11509175 |xxxxxxxxxxxxx |xxxxxxxxxxxxx |xxxxxxxxxxxxx |xxxxxxxxxxxxx |     24950727 |     24950727 |     24950728 |xxxxxxxxxxxxx |xxxxxxxxxxxxx |xxxxxxxxxxxxx |xxxxxxxxxxxxx |     84844559 |     84844582 |     84844583 |xxxxxxxxxxxxx |xxxxxxxxxxxxx |xxxxxxxxxxxxx |xxxxxxxxxxxxx |    240650351 |    240650403 |    240650404 |
bpred_bimod.dir_hits                         55035 |        55031 |        55030 |xxxxxxxxxxxxx |xxxxxxxxxxxxx |xxxxxxxxxxxxx |xxxxxxxxxxxxx |       116683 |       116676 |       116675 |xxxxxxxxxxxxx |xxxxxxxxxxxxx |xxxxxxxxxxxxx |xxxxxxxxxxxxx |       257104 |       257101 |       257101 |xxxxxxxxxxxxx |xxxxxxxxxxxxx |xxxxxxxxxxxxx |xxxxxxxxxxxxx |       550817 |       550816 |       550817 |xxxxxxxxxxxxx |xxxxxxxxxxxxx |xxxxxxxxxxxxx |xxxxxxxxxxxxx |      1198842 |      1198839 |      1198839 |xxxxxxxxxxxxx |xxxxxxxxxxxxx |xxxxxxxxxxxxx |xxxxxxxxxxxxx |      2605875 |      2605873 |      2605874 |xxxxxxxxxxxxx |xxxxxxxxxxxxx |xxxxxxxxxxxxx |xxxxxxxxxxxxx |      5407893 |      5407892 |      5407892 |xxxxxxxxxxxxx |xxxxxxxxxxxxx |xxxxxxxxxxxxx |xxxxxxxxxxxxx |     11509289 |     11509288 |     11509287 |xxxxxxxxxxxxx |xxxxxxxxxxxxx |xxxxxxxxxxxxx |xxxxxxxxxxxxx |     24950843 |     24950841 |     24950841 |xxxxxxxxxxxxx |xxxxxxxxxxxxx |xxxxxxxxxxxxx |xxxxxxxxxxxxx |     84844721 |     84844742 |     84844742 |xxxxxxxxxxxxx |xxxxxxxxxxxxx |xxxxxxxxxxxxx |xxxxxxxxxxxxx |    240650513 |    240650561 |    240650560 |
bpred_bimod.misses                           21508 |        21512 |        21513 |xxxxxxxxxxxxx |xxxxxxxxxxxxx |xxxxxxxxxxxxx |xxxxxxxxxxxxx |        46967 |        46974 |        46975 |xxxxxxxxxxxxx |xxxxxxxxxxxxx |xxxxxxxxxxxxx |xxxxxxxxxxxxx |        99504 |        99507 |        99507 |xxxxxxxxxxxxx |xxxxxxxxxxxxx |xxxxxxxxxxxxx |xxxxxxxxxxxxx |       214789 |       214790 |       214789 |xxxxxxxxxxxxx |xxxxxxxxxxxxx |xxxxxxxxxxxxx |xxxxxxxxxxxxx |       448226 |       448229 |       448229 |xxxxxxxxxxxxx |xxxxxxxxxxxxx |xxxxxxxxxxxxx |xxxxxxxxxxxxx |       949340 |       949342 |       949341 |xxxxxxxxxxxxx |xxxxxxxxxxxxx |xxxxxxxxxxxxx |xxxxxxxxxxxxx |      2025748 |      2025749 |      2025749 |xxxxxxxxxxxxx |xxxxxxxxxxxxx |xxxxxxxxxxxxx |xxxxxxxxxxxxx |      4253898 |      4253899 |      4253900 |xxxxxxxxxxxxx |xxxxxxxxxxxxx |xxxxxxxxxxxxx |xxxxxxxxxxxxx |      8878808 |      8878810 |      8878810 |xxxxxxxxxxxxx |xxxxxxxxxxxxx |xxxxxxxxxxxxx |xxxxxxxxxxxxx |     18232755 |     18232734 |     18232734 |xxxxxxxxxxxxx |xxxxxxxxxxxxx |xxxxxxxxxxxxx |xxxxxxxxxxxxx |     36952651 |     36952603 |     36952604 |
bpred_bimod.jr_hits                             65 |           65 |           65 |xxxxxxxxxxxxx |xxxxxxxxxxxxx |xxxxxxxxxxxxx |xxxxxxxxxxxxx |           65 |           65 |           65 |xxxxxxxxxxxxx |xxxxxxxxxxxxx |xxxxxxxxxxxxx |xxxxxxxxxxxxx |           65 |           65 |           65 |xxxxxxxxxxxxx |xxxxxxxxxxxxx |xxxxxxxxxxxxx |xxxxxxxxxxxxx |           65 |           65 |           65 |xxxxxxxxxxxxx |xxxxxxxxxxxxx |xxxxxxxxxxxxx |xxxxxxxxxxxxx |           65 |           65 |           65 |xxxxxxxxxxxxx |xxxxxxxxxxxxx |xxxxxxxxxxxxx |xxxxxxxxxxxxx |           65 |           65 |           65 |xxxxxxxxxxxxx |xxxxxxxxxxxxx |xxxxxxxxxxxxx |xxxxxxxxxxxxx |           65 |           65 |           65 |xxxxxxxxxxxxx |xxxxxxxxxxxxx |xxxxxxxxxxxxx |xxxxxxxxxxxxx |           65 |           65 |           65 |xxxxxxxxxxxxx |xxxxxxxxxxxxx |xxxxxxxxxxxxx |xxxxxxxxxxxxx |           65 |           65 |           65 |xxxxxxxxxxxxx |xxxxxxxxxxxxx |xxxxxxxxxxxxx |xxxxxxxxxxxxx |          110 |          110 |          110 |xxxxxxxxxxxxx |xxxxxxxxxxxxx |xxxxxxxxxxxxx |xxxxxxxxxxxxx |          122 |          122 |          122 |
bpred_bimod.jr_seen                             65 |           65 |           65 |xxxxxxxxxxxxx |xxxxxxxxxxxxx |xxxxxxxxxxxxx |xxxxxxxxxxxxx |           65 |           65 |           65 |xxxxxxxxxxxxx |xxxxxxxxxxxxx |xxxxxxxxxxxxx |xxxxxxxxxxxxx |           65 |           65 |           65 |xxxxxxxxxxxxx |xxxxxxxxxxxxx |xxxxxxxxxxxxx |xxxxxxxxxxxxx |           65 |           65 |           65 |xxxxxxxxxxxxx |xxxxxxxxxxxxx |xxxxxxxxxxxxx |xxxxxxxxxxxxx |           65 |           65 |           65 |xxxxxxxxxxxxx |xxxxxxxxxxxxx |xxxxxxxxxxxxx |xxxxxxxxxxxxx |           65 |           65 |           65 |xxxxxxxxxxxxx |xxxxxxxxxxxxx |xxxxxxxxxxxxx |xxxxxxxxxxxxx |           65 |           65 |           65 |xxxxxxxxxxxxx |xxxxxxxxxxxxx |xxxxxxxxxxxxx |xxxxxxxxxxxxx |           65 |           65 |           65 |xxxxxxxxxxxxx |xxxxxxxxxxxxx |xxxxxxxxxxxxx |xxxxxxxxxxxxx |           65 |           65 |           65 |xxxxxxxxxxxxx |xxxxxxxxxxxxx |xxxxxxxxxxxxx |xxxxxxxxxxxxx |          111 |          111 |          111 |xxxxxxxxxxxxx |xxxxxxxxxxxxx |xxxxxxxxxxxxx |xxxxxxxxxxxxx |          123 |          123 |          123 |
bpred_bimod.jr_non_ras_hits.PP                   0 |            0 |            0 |xxxxxxxxxxxxx |xxxxxxxxxxxxx |xxxxxxxxxxxxx |xxxxxxxxxxxxx |            0 |            0 |            0 |xxxxxxxxxxxxx |xxxxxxxxxxxxx |xxxxxxxxxxxxx |xxxxxxxxxxxxx |            0 |            0 |            0 |xxxxxxxxxxxxx |xxxxxxxxxxxxx |xxxxxxxxxxxxx |xxxxxxxxxxxxx |            0 |            0 |            0 |xxxxxxxxxxxxx |xxxxxxxxxxxxx |xxxxxxxxxxxxx |xxxxxxxxxxxxx |            0 |            0 |            0 |xxxxxxxxxxxxx |xxxxxxxxxxxxx |xxxxxxxxxxxxx |xxxxxxxxxxxxx |            0 |            0 |            0 |xxxxxxxxxxxxx |xxxxxxxxxxxxx |xxxxxxxxxxxxx |xxxxxxxxxxxxx |            0 |            0 |            0 |xxxxxxxxxxxxx |xxxxxxxxxxxxx |xxxxxxxxxxxxx |xxxxxxxxxxxxx |            0 |            0 |            0 |xxxxxxxxxxxxx |xxxxxxxxxxxxx |xxxxxxxxxxxxx |xxxxxxxxxxxxx |            0 |            0 |            0 |xxxxxxxxxxxxx |xxxxxxxxxxxxx |xxxxxxxxxxxxx |xxxxxxxxxxxxx |            0 |            0 |            0 |xxxxxxxxxxxxx |xxxxxxxxxxxxx |xxxxxxxxxxxxx |xxxxxxxxxxxxx |            0 |            0 |            0 |
bpred_bimod.jr_non_ras_seen.PP                   0 |            0 |            0 |xxxxxxxxxxxxx |xxxxxxxxxxxxx |xxxxxxxxxxxxx |xxxxxxxxxxxxx |            0 |            0 |            0 |xxxxxxxxxxxxx |xxxxxxxxxxxxx |xxxxxxxxxxxxx |xxxxxxxxxxxxx |            0 |            0 |            0 |xxxxxxxxxxxxx |xxxxxxxxxxxxx |xxxxxxxxxxxxx |xxxxxxxxxxxxx |            0 |            0 |            0 |xxxxxxxxxxxxx |xxxxxxxxxxxxx |xxxxxxxxxxxxx |xxxxxxxxxxxxx |            0 |            0 |            0 |xxxxxxxxxxxxx |xxxxxxxxxxxxx |xxxxxxxxxxxxx |xxxxxxxxxxxxx |            0 |            0 |            0 |xxxxxxxxxxxxx |xxxxxxxxxxxxx |xxxxxxxxxxxxx |xxxxxxxxxxxxx |            0 |            0 |            0 |xxxxxxxxxxxxx |xxxxxxxxxxxxx |xxxxxxxxxxxxx |xxxxxxxxxxxxx |            0 |            0 |            0 |xxxxxxxxxxxxx |xxxxxxxxxxxxx |xxxxxxxxxxxxx |xxxxxxxxxxxxx |            0 |            0 |            0 |xxxxxxxxxxxxx |xxxxxxxxxxxxx |xxxxxxxxxxxxx |xxxxxxxxxxxxx |            1 |            1 |            1 |xxxxxxxxxxxxx |xxxxxxxxxxxxx |xxxxxxxxxxxxx |xxxxxxxxxxxxx |            1 |            1 |            1 |
bpred_bimod.bpred_addr_rate                 0.7175 |       0.7175 |       0.7175 |xxxxxxxxxxxxx |xxxxxxxxxxxxx |xxxxxxxxxxxxx |xxxxxxxxxxxxx |       0.7123 |       0.7123 |       0.7123 |xxxxxxxxxxxxx |xxxxxxxxxxxxx |xxxxxxxxxxxxx |xxxxxxxxxxxxx |       0.7207 |       0.7207 |       0.7207 |xxxxxxxxxxxxx |xxxxxxxxxxxxx |xxxxxxxxxxxxx |xxxxxxxxxxxxx |       0.7193 |       0.7193 |       0.7193 |xxxxxxxxxxxxx |xxxxxxxxxxxxx |xxxxxxxxxxxxx |xxxxxxxxxxxxx |       0.7278 |       0.7278 |       0.7278 |xxxxxxxxxxxxx |xxxxxxxxxxxxx |xxxxxxxxxxxxx |xxxxxxxxxxxxx |       0.7329 |       0.7329 |       0.7329 |xxxxxxxxxxxxx |xxxxxxxxxxxxx |xxxxxxxxxxxxx |xxxxxxxxxxxxx |       0.7275 |       0.7275 |       0.7275 |xxxxxxxxxxxxx |xxxxxxxxxxxxx |xxxxxxxxxxxxx |xxxxxxxxxxxxx |       0.7301 |       0.7301 |       0.7301 |xxxxxxxxxxxxx |xxxxxxxxxxxxx |xxxxxxxxxxxxx |xxxxxxxxxxxxx |       0.7375 |       0.7375 |       0.7375 |xxxxxxxxxxxxx |xxxxxxxxxxxxx |xxxxxxxxxxxxx |xxxxxxxxxxxxx |       0.8231 |       0.8231 |       0.8231 |xxxxxxxxxxxxx |xxxxxxxxxxxxx |xxxxxxxxxxxxx |xxxxxxxxxxxxx |       0.8669 |       0.8669 |       0.8669 |
bpred_bimod.bpred_dir_rate                  0.7190 |       0.7190 |       0.7189 |xxxxxxxxxxxxx |xxxxxxxxxxxxx |xxxxxxxxxxxxx |xxxxxxxxxxxxx |       0.7130 |       0.7130 |       0.7130 |xxxxxxxxxxxxx |xxxxxxxxxxxxx |xxxxxxxxxxxxx |xxxxxxxxxxxxx |       0.7210 |       0.7210 |       0.7210 |xxxxxxxxxxxxx |xxxxxxxxxxxxx |xxxxxxxxxxxxx |xxxxxxxxxxxxx |       0.7195 |       0.7195 |       0.7195 |xxxxxxxxxxxxx |xxxxxxxxxxxxx |xxxxxxxxxxxxx |xxxxxxxxxxxxx |       0.7279 |       0.7279 |       0.7279 |xxxxxxxxxxxxx |xxxxxxxxxxxxx |xxxxxxxxxxxxx |xxxxxxxxxxxxx |       0.7330 |       0.7330 |       0.7330 |xxxxxxxxxxxxx |xxxxxxxxxxxxx |xxxxxxxxxxxxx |xxxxxxxxxxxxx |       0.7275 |       0.7275 |       0.7275 |xxxxxxxxxxxxx |xxxxxxxxxxxxx |xxxxxxxxxxxxx |xxxxxxxxxxxxx |       0.7301 |       0.7301 |       0.7301 |xxxxxxxxxxxxx |xxxxxxxxxxxxx |xxxxxxxxxxxxx |xxxxxxxxxxxxx |       0.7375 |       0.7375 |       0.7375 |xxxxxxxxxxxxx |xxxxxxxxxxxxx |xxxxxxxxxxxxx |xxxxxxxxxxxxx |       0.8231 |       0.8231 |       0.8231 |xxxxxxxxxxxxx |xxxxxxxxxxxxx |xxxxxxxxxxxxx |xxxxxxxxxxxxx |       0.8669 |       0.8669 |       0.8669 |
bpred_bimod.bpred_jr_rate                   1.0000 |       1.0000 |       1.0000 |xxxxxxxxxxxxx |xxxxxxxxxxxxx |xxxxxxxxxxxxx |xxxxxxxxxxxxx |       1.0000 |       1.0000 |       1.0000 |xxxxxxxxxxxxx |xxxxxxxxxxxxx |xxxxxxxxxxxxx |xxxxxxxxxxxxx |       1.0000 |       1.0000 |       1.0000 |xxxxxxxxxxxxx |xxxxxxxxxxxxx |xxxxxxxxxxxxx |xxxxxxxxxxxxx |       1.0000 |       1.0000 |       1.0000 |xxxxxxxxxxxxx |xxxxxxxxxxxxx |xxxxxxxxxxxxx |xxxxxxxxxxxxx |       1.0000 |       1.0000 |       1.0000 |xxxxxxxxxxxxx |xxxxxxxxxxxxx |xxxxxxxxxxxxx |xxxxxxxxxxxxx |       1.0000 |       1.0000 |       1.0000 |xxxxxxxxxxxxx |xxxxxxxxxxxxx |xxxxxxxxxxxxx |xxxxxxxxxxxxx |       1.0000 |       1.0000 |       1.0000 |xxxxxxxxxxxxx |xxxxxxxxxxxxx |xxxxxxxxxxxxx |xxxxxxxxxxxxx |       1.0000 |       1.0000 |       1.0000 |xxxxxxxxxxxxx |xxxxxxxxxxxxx |xxxxxxxxxxxxx |xxxxxxxxxxxxx |       1.0000 |       1.0000 |       1.0000 |xxxxxxxxxxxxx |xxxxxxxxxxxxx |xxxxxxxxxxxxx |xxxxxxxxxxxxx |       0.9910 |       0.9910 |       0.9910 |xxxxxxxxxxxxx |xxxxxxxxxxxxx |xxxxxxxxxxxxx |xxxxxxxxxxxxx |       0.9919 |       0.9919 |       0.9919 |
bpred_bimod.bpred_jr_non_ras_rate.PP       <error: |      <error: |      <error: |xxxxxxxxxxxxx |xxxxxxxxxxxxx |xxxxxxxxxxxxx |xxxxxxxxxxxxx |      <error: |      <error: |      <error: |xxxxxxxxxxxxx |xxxxxxxxxxxxx |xxxxxxxxxxxxx |xxxxxxxxxxxxx |      <error: |      <error: |      <error: |xxxxxxxxxxxxx |xxxxxxxxxxxxx |xxxxxxxxxxxxx |xxxxxxxxxxxxx |      <error: |      <error: |      <error: |xxxxxxxxxxxxx |xxxxxxxxxxxxx |xxxxxxxxxxxxx |xxxxxxxxxxxxx |      <error: |      <error: |      <error: |xxxxxxxxxxxxx |xxxxxxxxxxxxx |xxxxxxxxxxxxx |xxxxxxxxxxxxx |      <error: |      <error: |      <error: |xxxxxxxxxxxxx |xxxxxxxxxxxxx |xxxxxxxxxxxxx |xxxxxxxxxxxxx |      <error: |      <error: |      <error: |xxxxxxxxxxxxx |xxxxxxxxxxxxx |xxxxxxxxxxxxx |xxxxxxxxxxxxx |      <error: |      <error: |      <error: |xxxxxxxxxxxxx |xxxxxxxxxxxxx |xxxxxxxxxxxxx |xxxxxxxxxxxxx |      <error: |      <error: |      <error: |xxxxxxxxxxxxx |xxxxxxxxxxxxx |xxxxxxxxxxxxx |xxxxxxxxxxxxx |       0.0000 |       0.0000 |       0.0000 |xxxxxxxxxxxxx |xxxxxxxxxxxxx |xxxxxxxxxxxxx |xxxxxxxxxxxxx |       0.0000 |       0.0000 |       0.0000 |
bpred_bimod.retstack_pushes                     67 |           67 |           67 |xxxxxxxxxxxxx |xxxxxxxxxxxxx |xxxxxxxxxxxxx |xxxxxxxxxxxxx |           67 |           67 |           67 |xxxxxxxxxxxxx |xxxxxxxxxxxxx |xxxxxxxxxxxxx |xxxxxxxxxxxxx |           67 |           67 |           67 |xxxxxxxxxxxxx |xxxxxxxxxxxxx |xxxxxxxxxxxxx |xxxxxxxxxxxxx |           67 |           67 |           67 |xxxxxxxxxxxxx |xxxxxxxxxxxxx |xxxxxxxxxxxxx |xxxxxxxxxxxxx |           67 |           67 |           67 |xxxxxxxxxxxxx |xxxxxxxxxxxxx |xxxxxxxxxxxxx |xxxxxxxxxxxxx |           67 |           67 |           67 |xxxxxxxxxxxxx |xxxxxxxxxxxxx |xxxxxxxxxxxxx |xxxxxxxxxxxxx |           67 |           67 |           67 |xxxxxxxxxxxxx |xxxxxxxxxxxxx |xxxxxxxxxxxxx |xxxxxxxxxxxxx |           67 |           67 |           67 |xxxxxxxxxxxxx |xxxxxxxxxxxxx |xxxxxxxxxxxxx |xxxxxxxxxxxxx |           67 |           67 |           67 |xxxxxxxxxxxxx |xxxxxxxxxxxxx |xxxxxxxxxxxxx |xxxxxxxxxxxxx |          112 |          112 |          112 |xxxxxxxxxxxxx |xxxxxxxxxxxxx |xxxxxxxxxxxxx |xxxxxxxxxxxxx |          124 |          124 |          124 |
bpred_bimod.retstack_pops                       65 |           65 |           65 |xxxxxxxxxxxxx |xxxxxxxxxxxxx |xxxxxxxxxxxxx |xxxxxxxxxxxxx |           65 |           65 |           65 |xxxxxxxxxxxxx |xxxxxxxxxxxxx |xxxxxxxxxxxxx |xxxxxxxxxxxxx |           65 |           65 |           65 |xxxxxxxxxxxxx |xxxxxxxxxxxxx |xxxxxxxxxxxxx |xxxxxxxxxxxxx |           65 |           65 |           65 |xxxxxxxxxxxxx |xxxxxxxxxxxxx |xxxxxxxxxxxxx |xxxxxxxxxxxxx |           65 |           65 |           65 |xxxxxxxxxxxxx |xxxxxxxxxxxxx |xxxxxxxxxxxxx |xxxxxxxxxxxxx |           65 |           65 |           65 |xxxxxxxxxxxxx |xxxxxxxxxxxxx |xxxxxxxxxxxxx |xxxxxxxxxxxxx |           65 |           65 |           65 |xxxxxxxxxxxxx |xxxxxxxxxxxxx |xxxxxxxxxxxxx |xxxxxxxxxxxxx |           65 |           65 |           65 |xxxxxxxxxxxxx |xxxxxxxxxxxxx |xxxxxxxxxxxxx |xxxxxxxxxxxxx |           65 |           65 |           65 |xxxxxxxxxxxxx |xxxxxxxxxxxxx |xxxxxxxxxxxxx |xxxxxxxxxxxxx |          110 |          110 |          110 |xxxxxxxxxxxxx |xxxxxxxxxxxxx |xxxxxxxxxxxxx |xxxxxxxxxxxxx |          122 |          122 |          122 |
bpred_bimod.used_ras.PP                         65 |           65 |           65 |xxxxxxxxxxxxx |xxxxxxxxxxxxx |xxxxxxxxxxxxx |xxxxxxxxxxxxx |           65 |           65 |           65 |xxxxxxxxxxxxx |xxxxxxxxxxxxx |xxxxxxxxxxxxx |xxxxxxxxxxxxx |           65 |           65 |           65 |xxxxxxxxxxxxx |xxxxxxxxxxxxx |xxxxxxxxxxxxx |xxxxxxxxxxxxx |           65 |           65 |           65 |xxxxxxxxxxxxx |xxxxxxxxxxxxx |xxxxxxxxxxxxx |xxxxxxxxxxxxx |           65 |           65 |           65 |xxxxxxxxxxxxx |xxxxxxxxxxxxx |xxxxxxxxxxxxx |xxxxxxxxxxxxx |           65 |           65 |           65 |xxxxxxxxxxxxx |xxxxxxxxxxxxx |xxxxxxxxxxxxx |xxxxxxxxxxxxx |           65 |           65 |           65 |xxxxxxxxxxxxx |xxxxxxxxxxxxx |xxxxxxxxxxxxx |xxxxxxxxxxxxx |           65 |           65 |           65 |xxxxxxxxxxxxx |xxxxxxxxxxxxx |xxxxxxxxxxxxx |xxxxxxxxxxxxx |           65 |           65 |           65 |xxxxxxxxxxxxx |xxxxxxxxxxxxx |xxxxxxxxxxxxx |xxxxxxxxxxxxx |          110 |          110 |          110 |xxxxxxxxxxxxx |xxxxxxxxxxxxx |xxxxxxxxxxxxx |xxxxxxxxxxxxx |          122 |          122 |          122 |
bpred_bimod.ras_hits.PP                         65 |           65 |           65 |xxxxxxxxxxxxx |xxxxxxxxxxxxx |xxxxxxxxxxxxx |xxxxxxxxxxxxx |           65 |           65 |           65 |xxxxxxxxxxxxx |xxxxxxxxxxxxx |xxxxxxxxxxxxx |xxxxxxxxxxxxx |           65 |           65 |           65 |xxxxxxxxxxxxx |xxxxxxxxxxxxx |xxxxxxxxxxxxx |xxxxxxxxxxxxx |           65 |           65 |           65 |xxxxxxxxxxxxx |xxxxxxxxxxxxx |xxxxxxxxxxxxx |xxxxxxxxxxxxx |           65 |           65 |           65 |xxxxxxxxxxxxx |xxxxxxxxxxxxx |xxxxxxxxxxxxx |xxxxxxxxxxxxx |           65 |           65 |           65 |xxxxxxxxxxxxx |xxxxxxxxxxxxx |xxxxxxxxxxxxx |xxxxxxxxxxxxx |           65 |           65 |           65 |xxxxxxxxxxxxx |xxxxxxxxxxxxx |xxxxxxxxxxxxx |xxxxxxxxxxxxx |           65 |           65 |           65 |xxxxxxxxxxxxx |xxxxxxxxxxxxx |xxxxxxxxxxxxx |xxxxxxxxxxxxx |           65 |           65 |           65 |xxxxxxxxxxxxx |xxxxxxxxxxxxx |xxxxxxxxxxxxx |xxxxxxxxxxxxx |          110 |          110 |          110 |xxxxxxxxxxxxx |xxxxxxxxxxxxx |xxxxxxxxxxxxx |xxxxxxxxxxxxx |          122 |          122 |          122 |
bpred_bimod.ras_rate.PP                     1.0000 |       1.0000 |       1.0000 |xxxxxxxxxxxxx |xxxxxxxxxxxxx |xxxxxxxxxxxxx |xxxxxxxxxxxxx |       1.0000 |       1.0000 |       1.0000 |xxxxxxxxxxxxx |xxxxxxxxxxxxx |xxxxxxxxxxxxx |xxxxxxxxxxxxx |       1.0000 |       1.0000 |       1.0000 |xxxxxxxxxxxxx |xxxxxxxxxxxxx |xxxxxxxxxxxxx |xxxxxxxxxxxxx |       1.0000 |       1.0000 |       1.0000 |xxxxxxxxxxxxx |xxxxxxxxxxxxx |xxxxxxxxxxxxx |xxxxxxxxxxxxx |       1.0000 |       1.0000 |       1.0000 |xxxxxxxxxxxxx |xxxxxxxxxxxxx |xxxxxxxxxxxxx |xxxxxxxxxxxxx |       1.0000 |       1.0000 |       1.0000 |xxxxxxxxxxxxx |xxxxxxxxxxxxx |xxxxxxxxxxxxx |xxxxxxxxxxxxx |       1.0000 |       1.0000 |       1.0000 |xxxxxxxxxxxxx |xxxxxxxxxxxxx |xxxxxxxxxxxxx |xxxxxxxxxxxxx |       1.0000 |       1.0000 |       1.0000 |xxxxxxxxxxxxx |xxxxxxxxxxxxx |xxxxxxxxxxxxx |xxxxxxxxxxxxx |       1.0000 |       1.0000 |       1.0000 |xxxxxxxxxxxxx |xxxxxxxxxxxxx |xxxxxxxxxxxxx |xxxxxxxxxxxxx |       1.0000 |       1.0000 |       1.0000 |xxxxxxxxxxxxx |xxxxxxxxxxxxx |xxxxxxxxxxxxx |xxxxxxxxxxxxx |       1.0000 |       1.0000 |       1.0000 |
bpred_2lev.lookups                   xxxxxxxxxxxxx |xxxxxxxxxxxxx |xxxxxxxxxxxxx |        76543 |        76543 |        76543 |        76543 |xxxxxxxxxxxxx |xxxxxxxxxxxxx |xxxxxxxxxxxxx |       163650 |       163650 |       163650 |       163650 |xxxxxxxxxxxxx |xxxxxxxxxxxxx |xxxxxxxxxxxxx |       356608 |       356608 |       356608 |       356608 |xxxxxxxxxxxxx |xxxxxxxxxxxxx |xxxxxxxxxxxxx |       765606 |       765606 |       765606 |       765606 |xxxxxxxxxxxxx |xxxxxxxxxxxxx |xxxxxxxxxxxxx |      1647068 |      1647068 |      1647068 |      1647068 |xxxxxxxxxxxxx |xxxxxxxxxxxxx |xxxxxxxxxxxxx |      3555215 |      3555215 |      3555215 |      3555215 |xxxxxxxxxxxxx |xxxxxxxxxxxxx |xxxxxxxxxxxxx |      7433641 |      7433641 |      7433641 |      7433641 |xxxxxxxxxxxxx |xxxxxxxxxxxxx |xxxxxxxxxxxxx |     15763187 |     15763187 |     15763187 |     15763187 |xxxxxxxxxxxxx |xxxxxxxxxxxxx |xxxxxxxxxxxxx |     33829651 |     33829651 |     33829651 |     33829651 |xxxxxxxxxxxxx |xxxxxxxxxxxxx |xxxxxxxxxxxxx |    103077476 |    103077476 |    103077476 |    103077476 |xxxxxxxxxxxxx |xxxxxxxxxxxxx |xxxxxxxxxxxxx |    277603164 |    277603164 |    277603164 |    277603164 |
[...]
bpred_2lev.retstack_pops             xxxxxxxxxxxxx |xxxxxxxxxxxxx |xxxxxxxxxxxxx |           65 |           65 |           65 |           65 |xxxxxxxxxxxxx |xxxxxxxxxxxxx |xxxxxxxxxxxxx |           65 |           65 |           65 |           65 |xxxxxxxxxxxxx |xxxxxxxxxxxxx |xxxxxxxxxxxxx |           65 |           65 |           65 |           65 |xxxxxxxxxxxxx |xxxxxxxxxxxxx |xxxxxxxxxxxxx |           65 |           65 |           65 |           65 |xxxxxxxxxxxxx |xxxxxxxxxxxxx |xxxxxxxxxxxxx |           65 |           65 |           65 |           65 |xxxxxxxxxxxxx |xxxxxxxxxxxxx |xxxxxxxxxxxxx |           65 |           65 |           65 |           65 |xxxxxxxxxxxxx |xxxxxxxxxxxxx |xxxxxxxxxxxxx |           65 |           65 |           65 |           65 |xxxxxxxxxxxxx |xxxxxxxxxxxxx |xxxxxxxxxxxxx |           65 |           65 |           65 |           65 |xxxxxxxxxxxxx |xxxxxxxxxxxxx |xxxxxxxxxxxxx |           65 |           65 |           65 |           65 |xxxxxxxxxxxxx |xxxxxxxxxxxxx |xxxxxxxxxxxxx |          110 |          110 |          110 |          110 |xxxxxxxxxxxxx |xxxxxxxxxxxxx |xxxxxxxxxxxxx |          122 |          122 |          122 |          122 |
bpred_2lev.used_ras.PP               xxxxxxxxxxxxx |xxxxxxxxxxxxx |xxxxxxxxxxxxx |           65 |           65 |           65 |           65 |xxxxxxxxxxxxx |xxxxxxxxxxxxx |xxxxxxxxxxxxx |           65 |           65 |           65 |           65 |xxxxxxxxxxxxx |xxxxxxxxxxxxx |xxxxxxxxxxxxx |           65 |           65 |           65 |           65 |xxxxxxxxxxxxx |xxxxxxxxxxxxx |xxxxxxxxxxxxx |           65 |           65 |           65 |           65 |xxxxxxxxxxxxx |xxxxxxxxxxxxx |xxxxxxxxxxxxx |           65 |           65 |           65 |           65 |xxxxxxxxxxxxx |xxxxxxxxxxxxx |xxxxxxxxxxxxx |           65 |           65 |           65 |           65 |xxxxxxxxxxxxx |xxxxxxxxxxxxx |xxxxxxxxxxxxx |           65 |           65 |           65 |           65 |xxxxxxxxxxxxx |xxxxxxxxxxxxx |xxxxxxxxxxxxx |           65 |           65 |           65 |           65 |xxxxxxxxxxxxx |xxxxxxxxxxxxx |xxxxxxxxxxxxx |           65 |           65 |           65 |           65 |xxxxxxxxxxxxx |xxxxxxxxxxxxx |xxxxxxxxxxxxx |          110 |          110 |          110 |          110 |xxxxxxxxxxxxx |xxxxxxxxxxxxx |xxxxxxxxxxxxx |          122 |          122 |          122 |          122 |
bpred_2lev.ras_hits.PP               xxxxxxxxxxxxx |xxxxxxxxxxxxx |xxxxxxxxxxxxx |           65 |           65 |           65 |           65 |xxxxxxxxxxxxx |xxxxxxxxxxxxx |xxxxxxxxxxxxx |           65 |           65 |           65 |           65 |xxxxxxxxxxxxx |xxxxxxxxxxxxx |xxxxxxxxxxxxx |           65 |           65 |           65 |           65 |xxxxxxxxxxxxx |xxxxxxxxxxxxx |xxxxxxxxxxxxx |           65 |           65 |           65 |           65 |xxxxxxxxxxxxx |xxxxxxxxxxxxx |xxxxxxxxxxxxx |           65 |           65 |           65 |           65 |xxxxxxxxxxxxx |xxxxxxxxxxxxx |xxxxxxxxxxxxx |           65 |           65 |           65 |           65 |xxxxxxxxxxxxx |xxxxxxxxxxxxx |xxxxxxxxxxxxx |           65 |           65 |           65 |           65 |xxxxxxxxxxxxx |xxxxxxxxxxxxx |xxxxxxxxxxxxx |           65 |           65 |           65 |           65 |xxxxxxxxxxxxx |xxxxxxxxxxxxx |xxxxxxxxxxxxx |           65 |           65 |           65 |           65 |xxxxxxxxxxxxx |xxxxxxxxxxxxx |xxxxxxxxxxxxx |          110 |          110 |          110 |          110 |xxxxxxxxxxxxx |xxxxxxxxxxxxx |xxxxxxxxxxxxx |          122 |          122 |          122 |          122 |
bpred_2lev.ras_rate.PP               xxxxxxxxxxxxx |xxxxxxxxxxxxx |xxxxxxxxxxxxx |       1.0000 |       1.0000 |       1.0000 |       1.0000 |xxxxxxxxxxxxx |xxxxxxxxxxxxx |xxxxxxxxxxxxx |       1.0000 |       1.0000 |       1.0000 |       1.0000 |xxxxxxxxxxxxx |xxxxxxxxxxxxx |xxxxxxxxxxxxx |       1.0000 |       1.0000 |       1.0000 |       1.0000 |xxxxxxxxxxxxx |xxxxxxxxxxxxx |xxxxxxxxxxxxx |       1.0000 |       1.0000 |       1.0000 |       1.0000 |xxxxxxxxxxxxx |xxxxxxxxxxxxx |xxxxxxxxxxxxx |       1.0000 |       1.0000 |       1.0000 |       1.0000 |xxxxxxxxxxxxx |xxxxxxxxxxxxx |xxxxxxxxxxxxx |       1.0000 |       1.0000 |       1.0000 |       1.0000 |xxxxxxxxxxxxx |xxxxxxxxxxxxx |xxxxxxxxxxxxx |       1.0000 |       1.0000 |       1.0000 |       1.0000 |xxxxxxxxxxxxx |xxxxxxxxxxxxx |xxxxxxxxxxxxx |       1.0000 |       1.0000 |       1.0000 |       1.0000 |xxxxxxxxxxxxx |xxxxxxxxxxxxx |xxxxxxxxxxxxx |       1.0000 |       1.0000 |       1.0000 |       1.0000 |xxxxxxxxxxxxx |xxxxxxxxxxxxx |xxxxxxxxxxxxx |       1.0000 |       1.0000 |       1.0000 |       1.0000 |xxxxxxxxxxxxx |xxxxxxxxxxxxx |xxxxxxxxxxxxx |       1.0000 |       1.0000 |       1.0000 |       1.0000 |

Command list: 
	sslittle-na-sstrix-gcc -Wall -O3 -funroll-loops -finline-functions  -DRANDOM_SIZE=4096 -DOFFSET=3 -DSORT=multi_quicksort_seq sorts/multi_quicksort_seq627340471.c simpleMain.c -o multi_quicksort_seq1418983692
	sim-cache -cache:dl1 dl1:256:32:1:l -cache:dl2 dl2:131072:32:1:l -cache:il1 il1:256:32:1:l -cache:il2 dl2 multi_quicksort_seq1418983692
	sim-cache -cache:dl1 dl1:256:32:1:l -cache:dl2 dl2:65536:32:1:l -cache:il1 il1:256:32:1:l -cache:il2 dl2 multi_quicksort_seq1418983692
	sim-cache -cache:dl1 dl1:1:32:256:l -cache:dl2 dl2:1:32:131072:l -cache:il1 il1:1:32:256:l -cache:il2 dl2 multi_quicksort_seq1418983692
	sim-cache -cache:dl1 dl1:1:32:256:l -cache:dl2 dl2:1:32:65536:l -cache:il1 il1:1:32:256:l -cache:il2 dl2 multi_quicksort_seq1418983692
	sim-bpred -bpred bimod -bpred:bimod 512 multi_quicksort_seq1418983692
	sim-bpred -bpred bimod -bpred:bimod 1024 multi_quicksort_seq1418983692
	sim-bpred -bpred bimod -bpred:bimod 2048 multi_quicksort_seq1418983692
	sim-bpred -bpred 2lev -bpred:2lev 1 512 10 1 multi_quicksort_seq1418983692
	sim-bpred -bpred 2lev -bpred:2lev 1 1024 10 1 multi_quicksort_seq1418983692
	sim-bpred -bpred 2lev -bpred:2lev 1 2048 10 1 multi_quicksort_seq1418983692
	sim-bpred -bpred 2lev -bpred:2lev 1 4096 10 1 multi_quicksort_seq1418983692
	sslittle-na-sstrix-gcc -Wall -O3 -funroll-loops -finline-functions  -DRANDOM_SIZE=8192 -DOFFSET=3 -DSORT=multi_quicksort_seq sorts/multi_quicksort_seq627340471.c simpleMain.c -o multi_quicksort_seq1418983692
	sim-cache -cache:dl1 dl1:256:32:1:l -cache:dl2 dl2:131072:32:1:l -cache:il1 il1:256:32:1:l -cache:il2 dl2 multi_quicksort_seq1418983692
	sim-cache -cache:dl1 dl1:256:32:1:l -cache:dl2 dl2:65536:32:1:l -cache:il1 il1:256:32:1:l -cache:il2 dl2 multi_quicksort_seq1418983692
	sim-cache -cache:dl1 dl1:1:32:256:l -cache:dl2 dl2:1:32:131072:l -cache:il1 il1:1:32:256:l -cache:il2 dl2 multi_quicksort_seq1418983692
	sim-cache -cache:dl1 dl1:1:32:256:l -cache:dl2 dl2:1:32:65536:l -cache:il1 il1:1:32:256:l -cache:il2 dl2 multi_quicksort_seq1418983692
	sim-bpred -bpred bimod -bpred:bimod 512 multi_quicksort_seq1418983692
	sim-bpred -bpred bimod -bpred:bimod 1024 multi_quicksort_seq1418983692
	sim-bpred -bpred bimod -bpred:bimod 2048 multi_quicksort_seq1418983692
	sim-bpred -bpred 2lev -bpred:2lev 1 512 10 1 multi_quicksort_seq1418983692
	sim-bpred -bpred 2lev -bpred:2lev 1 1024 10 1 multi_quicksort_seq1418983692
	sim-bpred -bpred 2lev -bpred:2lev 1 2048 10 1 multi_quicksort_seq1418983692
	sim-bpred -bpred 2lev -bpred:2lev 1 4096 10 1 multi_quicksort_seq1418983692
	sslittle-na-sstrix-gcc -Wall -O3 -funroll-loops -finline-functions  -DRANDOM_SIZE=16384 -DOFFSET=3 -DSORT=multi_quicksort_seq sorts/multi_quicksort_seq627340471.c simpleMain.c -o multi_quicksort_seq1418983692
	sim-cache -cache:dl1 dl1:256:32:1:l -cache:dl2 dl2:131072:32:1:l -cache:il1 il1:256:32:1:l -cache:il2 dl2 multi_quicksort_seq1418983692
	sim-cache -cache:dl1 dl1:256:32:1:l -cache:dl2 dl2:65536:32:1:l -cache:il1 il1:256:32:1:l -cache:il2 dl2 multi_quicksort_seq1418983692
	sim-cache -cache:dl1 dl1:1:32:256:l -cache:dl2 dl2:1:32:131072:l -cache:il1 il1:1:32:256:l -cache:il2 dl2 multi_quicksort_seq1418983692
	sim-cache -cache:dl1 dl1:1:32:256:l -cache:dl2 dl2:1:32:65536:l -cache:il1 il1:1:32:256:l -cache:il2 dl2 multi_quicksort_seq1418983692
	sim-bpred -bpred bimod -bpred:bimod 512 multi_quicksort_seq1418983692
	sim-bpred -bpred bimod -bpred:bimod 1024 multi_quicksort_seq1418983692
	sim-bpred -bpred bimod -bpred:bimod 2048 multi_quicksort_seq1418983692
	sim-bpred -bpred 2lev -bpred:2lev 1 512 10 1 multi_quicksort_seq1418983692
	sim-bpred -bpred 2lev -bpred:2lev 1 1024 10 1 multi_quicksort_seq1418983692
	sim-bpred -bpred 2lev -bpred:2lev 1 2048 10 1 multi_quicksort_seq1418983692
	sim-bpred -bpred 2lev -bpred:2lev 1 4096 10 1 multi_quicksort_seq1418983692
	sslittle-na-sstrix-gcc -Wall -O3 -funroll-loops -finline-functions  -DRANDOM_SIZE=32768 -DOFFSET=3 -DSORT=multi_quicksort_seq sorts/multi_quicksort_seq627340471.c simpleMain.c -o multi_quicksort_seq1418983692
	sim-cache -cache:dl1 dl1:256:32:1:l -cache:dl2 dl2:131072:32:1:l -cache:il1 il1:256:32:1:l -cache:il2 dl2 multi_quicksort_seq1418983692
	sim-cache -cache:dl1 dl1:256:32:1:l -cache:dl2 dl2:65536:32:1:l -cache:il1 il1:256:32:1:l -cache:il2 dl2 multi_quicksort_seq1418983692
	sim-cache -cache:dl1 dl1:1:32:256:l -cache:dl2 dl2:1:32:131072:l -cache:il1 il1:1:32:256:l -cache:il2 dl2 multi_quicksort_seq1418983692
	sim-cache -cache:dl1 dl1:1:32:256:l -cache:dl2 dl2:1:32:65536:l -cache:il1 il1:1:32:256:l -cache:il2 dl2 multi_quicksort_seq1418983692
	sim-bpred -bpred bimod -bpred:bimod 512 multi_quicksort_seq1418983692
	sim-bpred -bpred bimod -bpred:bimod 1024 multi_quicksort_seq1418983692
	sim-bpred -bpred bimod -bpred:bimod 2048 multi_quicksort_seq1418983692
	sim-bpred -bpred 2lev -bpred:2lev 1 512 10 1 multi_quicksort_seq1418983692
	sim-bpred -bpred 2lev -bpred:2lev 1 1024 10 1 multi_quicksort_seq1418983692
	sim-bpred -bpred 2lev -bpred:2lev 1 2048 10 1 multi_quicksort_seq1418983692
	sim-bpred -bpred 2lev -bpred:2lev 1 4096 10 1 multi_quicksort_seq1418983692
	sslittle-na-sstrix-gcc -Wall -O3 -funroll-loops -finline-functions  -DRANDOM_SIZE=65536 -DOFFSET=3 -DSORT=multi_quicksort_seq sorts/multi_quicksort_seq627340471.c simpleMain.c -o multi_quicksort_seq1418983692
	sim-cache -cache:dl1 dl1:256:32:1:l -cache:dl2 dl2:131072:32:1:l -cache:il1 il1:256:32:1:l -cache:il2 dl2 multi_quicksort_seq1418983692
	sim-cache -cache:dl1 dl1:256:32:1:l -cache:dl2 dl2:65536:32:1:l -cache:il1 il1:256:32:1:l -cache:il2 dl2 multi_quicksort_seq1418983692
	sim-cache -cache:dl1 dl1:1:32:256:l -cache:dl2 dl2:1:32:131072:l -cache:il1 il1:1:32:256:l -cache:il2 dl2 multi_quicksort_seq1418983692
	sim-cache -cache:dl1 dl1:1:32:256:l -cache:dl2 dl2:1:32:65536:l -cache:il1 il1:1:32:256:l -cache:il2 dl2 multi_quicksort_seq1418983692
	sim-bpred -bpred bimod -bpred:bimod 512 multi_quicksort_seq1418983692
	sim-bpred -bpred bimod -bpred:bimod 1024 multi_quicksort_seq1418983692
	sim-bpred -bpred bimod -bpred:bimod 2048 multi_quicksort_seq1418983692
	sim-bpred -bpred 2lev -bpred:2lev 1 512 10 1 multi_quicksort_seq1418983692
	sim-bpred -bpred 2lev -bpred:2lev 1 1024 10 1 multi_quicksort_seq1418983692
	sim-bpred -bpred 2lev -bpred:2lev 1 2048 10 1 multi_quicksort_seq1418983692
	sim-bpred -bpred 2lev -bpred:2lev 1 4096 10 1 multi_quicksort_seq1418983692
	sslittle-na-sstrix-gcc -Wall -O3 -funroll-loops -finline-functions  -DRANDOM_SIZE=131072 -DOFFSET=3 -DSORT=multi_quicksort_seq sorts/multi_quicksort_seq627340471.c simpleMain.c -o multi_quicksort_seq1418983692
	sim-cache -cache:dl1 dl1:256:32:1:l -cache:dl2 dl2:131072:32:1:l -cache:il1 il1:256:32:1:l -cache:il2 dl2 multi_quicksort_seq1418983692
	sim-cache -cache:dl1 dl1:256:32:1:l -cache:dl2 dl2:65536:32:1:l -cache:il1 il1:256:32:1:l -cache:il2 dl2 multi_quicksort_seq1418983692
	sim-cache -cache:dl1 dl1:1:32:256:l -cache:dl2 dl2:1:32:131072:l -cache:il1 il1:1:32:256:l -cache:il2 dl2 multi_quicksort_seq1418983692
	sim-cache -cache:dl1 dl1:1:32:256:l -cache:dl2 dl2:1:32:65536:l -cache:il1 il1:1:32:256:l -cache:il2 dl2 multi_quicksort_seq1418983692
	sim-bpred -bpred bimod -bpred:bimod 512 multi_quicksort_seq1418983692
	sim-bpred -bpred bimod -bpred:bimod 1024 multi_quicksort_seq1418983692
	sim-bpred -bpred bimod -bpred:bimod 2048 multi_quicksort_seq1418983692
	sim-bpred -bpred 2lev -bpred:2lev 1 512 10 1 multi_quicksort_seq1418983692
	sim-bpred -bpred 2lev -bpred:2lev 1 1024 10 1 multi_quicksort_seq1418983692
	sim-bpred -bpred 2lev -bpred:2lev 1 2048 10 1 multi_quicksort_seq1418983692
	sim-bpred -bpred 2lev -bpred:2lev 1 4096 10 1 multi_quicksort_seq1418983692
	sslittle-na-sstrix-gcc -Wall -O3 -funroll-loops -finline-functions  -DRANDOM_SIZE=262144 -DOFFSET=3 -DSORT=multi_quicksort_seq sorts/multi_quicksort_seq627340471.c simpleMain.c -o multi_quicksort_seq1418983692
	sim-cache -cache:dl1 dl1:256:32:1:l -cache:dl2 dl2:131072:32:1:l -cache:il1 il1:256:32:1:l -cache:il2 dl2 multi_quicksort_seq1418983692
	sim-cache -cache:dl1 dl1:256:32:1:l -cache:dl2 dl2:65536:32:1:l -cache:il1 il1:256:32:1:l -cache:il2 dl2 multi_quicksort_seq1418983692
	sim-cache -cache:dl1 dl1:1:32:256:l -cache:dl2 dl2:1:32:131072:l -cache:il1 il1:1:32:256:l -cache:il2 dl2 multi_quicksort_seq1418983692
	sim-cache -cache:dl1 dl1:1:32:256:l -cache:dl2 dl2:1:32:65536:l -cache:il1 il1:1:32:256:l -cache:il2 dl2 multi_quicksort_seq1418983692
	sim-bpred -bpred bimod -bpred:bimod 512 multi_quicksort_seq1418983692
	sim-bpred -bpred bimod -bpred:bimod 1024 multi_quicksort_seq1418983692
	sim-bpred -bpred bimod -bpred:bimod 2048 multi_quicksort_seq1418983692
	sim-bpred -bpred 2lev -bpred:2lev 1 512 10 1 multi_quicksort_seq1418983692
	sim-bpred -bpred 2lev -bpred:2lev 1 1024 10 1 multi_quicksort_seq1418983692
	sim-bpred -bpred 2lev -bpred:2lev 1 2048 10 1 multi_quicksort_seq1418983692
	sim-bpred -bpred 2lev -bpred:2lev 1 4096 10 1 multi_quicksort_seq1418983692
	sslittle-na-sstrix-gcc -Wall -O3 -funroll-loops -finline-functions  -DRANDOM_SIZE=524288 -DOFFSET=3 -DSORT=multi_quicksort_seq sorts/multi_quicksort_seq627340471.c simpleMain.c -o multi_quicksort_seq1418983692
	sim-cache -cache:dl1 dl1:256:32:1:l -cache:dl2 dl2:131072:32:1:l -cache:il1 il1:256:32:1:l -cache:il2 dl2 multi_quicksort_seq1418983692
	sim-cache -cache:dl1 dl1:256:32:1:l -cache:dl2 dl2:65536:32:1:l -cache:il1 il1:256:32:1:l -cache:il2 dl2 multi_quicksort_seq1418983692
	sim-cache -cache:dl1 dl1:1:32:256:l -cache:dl2 dl2:1:32:131072:l -cache:il1 il1:1:32:256:l -cache:il2 dl2 multi_quicksort_seq1418983692
	sim-cache -cache:dl1 dl1:1:32:256:l -cache:dl2 dl2:1:32:65536:l -cache:il1 il1:1:32:256:l -cache:il2 dl2 multi_quicksort_seq1418983692
	sim-bpred -bpred bimod -bpred:bimod 512 multi_quicksort_seq1418983692
	sim-bpred -bpred bimod -bpred:bimod 1024 multi_quicksort_seq1418983692
	sim-bpred -bpred bimod -bpred:bimod 2048 multi_quicksort_seq1418983692
	sim-bpred -bpred 2lev -bpred:2lev 1 512 10 1 multi_quicksort_seq1418983692
	sim-bpred -bpred 2lev -bpred:2lev 1 1024 10 1 multi_quicksort_seq1418983692
	sim-bpred -bpred 2lev -bpred:2lev 1 2048 10 1 multi_quicksort_seq1418983692
	sim-bpred -bpred 2lev -bpred:2lev 1 4096 10 1 multi_quicksort_seq1418983692
	sslittle-na-sstrix-gcc -Wall -O3 -funroll-loops -finline-functions  -DRANDOM_SIZE=1048576 -DOFFSET=3 -DSORT=multi_quicksort_seq sorts/multi_quicksort_seq627340471.c simpleMain.c -o multi_quicksort_seq1418983692
	sim-cache -cache:dl1 dl1:256:32:1:l -cache:dl2 dl2:131072:32:1:l -cache:il1 il1:256:32:1:l -cache:il2 dl2 multi_quicksort_seq1418983692
	sim-cache -cache:dl1 dl1:256:32:1:l -cache:dl2 dl2:65536:32:1:l -cache:il1 il1:256:32:1:l -cache:il2 dl2 multi_quicksort_seq1418983692
	sim-cache -cache:dl1 dl1:1:32:256:l -cache:dl2 dl2:1:32:131072:l -cache:il1 il1:1:32:256:l -cache:il2 dl2 multi_quicksort_seq1418983692
	sim-cache -cache:dl1 dl1:1:32:256:l -cache:dl2 dl2:1:32:65536:l -cache:il1 il1:1:32:256:l -cache:il2 dl2 multi_quicksort_seq1418983692
	sim-bpred -bpred bimod -bpred:bimod 512 multi_quicksort_seq1418983692
	sim-bpred -bpred bimod -bpred:bimod 1024 multi_quicksort_seq1418983692
	sim-bpred -bpred bimod -bpred:bimod 2048 multi_quicksort_seq1418983692
	sim-bpred -bpred 2lev -bpred:2lev 1 512 10 1 multi_quicksort_seq1418983692
	sim-bpred -bpred 2lev -bpred:2lev 1 1024 10 1 multi_quicksort_seq1418983692
	sim-bpred -bpred 2lev -bpred:2lev 1 2048 10 1 multi_quicksort_seq1418983692
	sim-bpred -bpred 2lev -bpred:2lev 1 4096 10 1 multi_quicksort_seq1418983692
	sslittle-na-sstrix-gcc -Wall -O3 -funroll-loops -finline-functions  -DRANDOM_SIZE=2097152 -DOFFSET=3 -DSORT=multi_quicksort_seq sorts/multi_quicksort_seq627340471.c simpleMain.c -o multi_quicksort_seq1418983692
	sim-cache -cache:dl1 dl1:256:32:1:l -cache:dl2 dl2:131072:32:1:l -cache:il1 il1:256:32:1:l -cache:il2 dl2 multi_quicksort_seq1418983692
	sim-cache -cache:dl1 dl1:256:32:1:l -cache:dl2 dl2:65536:32:1:l -cache:il1 il1:256:32:1:l -cache:il2 dl2 multi_quicksort_seq1418983692
	sim-cache -cache:dl1 dl1:1:32:256:l -cache:dl2 dl2:1:32:131072:l -cache:il1 il1:1:32:256:l -cache:il2 dl2 multi_quicksort_seq1418983692
	sim-cache -cache:dl1 dl1:1:32:256:l -cache:dl2 dl2:1:32:65536:l -cache:il1 il1:1:32:256:l -cache:il2 dl2 multi_quicksort_seq1418983692
	sim-bpred -bpred bimod -bpred:bimod 512 multi_quicksort_seq1418983692
	sim-bpred -bpred bimod -bpred:bimod 1024 multi_quicksort_seq1418983692
	sim-bpred -bpred bimod -bpred:bimod 2048 multi_quicksort_seq1418983692
	sim-bpred -bpred 2lev -bpred:2lev 1 512 10 1 multi_quicksort_seq1418983692
	sim-bpred -bpred 2lev -bpred:2lev 1 1024 10 1 multi_quicksort_seq1418983692
	sim-bpred -bpred 2lev -bpred:2lev 1 2048 10 1 multi_quicksort_seq1418983692
	sim-bpred -bpred 2lev -bpred:2lev 1 4096 10 1 multi_quicksort_seq1418983692
	sslittle-na-sstrix-gcc -Wall -O3 -funroll-loops -finline-functions  -DRANDOM_SIZE=4194304 -DOFFSET=3 -DSORT=multi_quicksort_seq sorts/multi_quicksort_seq627340471.c simpleMain.c -o multi_quicksort_seq1418983692
	sim-cache -cache:dl1 dl1:256:32:1:l -cache:dl2 dl2:131072:32:1:l -cache:il1 il1:256:32:1:l -cache:il2 dl2 multi_quicksort_seq1418983692
	sim-cache -cache:dl1 dl1:256:32:1:l -cache:dl2 dl2:65536:32:1:l -cache:il1 il1:256:32:1:l -cache:il2 dl2 multi_quicksort_seq1418983692
	sim-cache -cache:dl1 dl1:1:32:256:l -cache:dl2 dl2:1:32:131072:l -cache:il1 il1:1:32:256:l -cache:il2 dl2 multi_quicksort_seq1418983692
	sim-cache -cache:dl1 dl1:1:32:256:l -cache:dl2 dl2:1:32:65536:l -cache:il1 il1:1:32:256:l -cache:il2 dl2 multi_quicksort_seq1418983692
	sim-bpred -bpred bimod -bpred:bimod 512 multi_quicksort_seq1418983692
	sim-bpred -bpred bimod -bpred:bimod 1024 multi_quicksort_seq1418983692
	sim-bpred -bpred bimod -bpred:bimod 2048 multi_quicksort_seq1418983692
	sim-bpred -bpred 2lev -bpred:2lev 1 512 10 1 multi_quicksort_seq1418983692
	sim-bpred -bpred 2lev -bpred:2lev 1 1024 10 1 multi_quicksort_seq1418983692
	sim-bpred -bpred 2lev -bpred:2lev 1 2048 10 1 multi_quicksort_seq1418983692
	sim-bpred -bpred 2lev -bpred:2lev 1 4096 10 1 multi_quicksort_seq1418983692
