Fri Jul  8 06:02:57 2005
Run as: "./do_simple -c random.org4 -o 4 multi_quicksort"
-------------------------------------------------------------------------------------------------
sim-cache                                     4096 |         4096 |         4096 |         4096 |         8192 |         8192 |         8192 |         8192 |        16384 |        16384 |        16384 |        16384 |        32768 |        32768 |        32768 |        32768 |        65536 |        65536 |        65536 |        65536 |       131072 |       131072 |       131072 |       131072 |       262144 |       262144 |       262144 |       262144 |       524288 |       524288 |       524288 |       524288 |      1048576 |      1048576 |      1048576 |      1048576 |      2097152 |      2097152 |      2097152 |      2097152 |      4194304 |      4194304 |      4194304 |      4194304 |
-cache:dl1 dl1:256:32:1:l -cache:dl2 dl2:131072:32:1:l -cache:il1 il1:256:32:1:l -cache:il2 dl2
-cache:dl1 dl1:256:32:1:l -cache:dl2 dl2:65536:32:1:l -cache:il1 il1:256:32:1:l -cache:il2 dl2
-cache:dl1 dl1:1:32:256:l -cache:dl2 dl2:1:32:131072:l -cache:il1 il1:1:32:256:l -cache:il2 dl2
-cache:dl1 dl1:1:32:256:l -cache:dl2 dl2:1:32:65536:l -cache:il1 il1:1:32:256:l -cache:il2 dl2
-------------------------------------------------------------------------------------------------
sim_num_insn                                482382 |       482382 |       482382 |       482382 |       979876 |       979876 |       979876 |       979876 |      2125473 |      2125473 |      2125473 |      2125473 |      4535262 |      4535262 |      4535262 |      4535262 |      9735420 |      9735420 |      9735420 |      9735420 |     20591827 |     20591827 |     20591827 |     20591827 |     43813715 |     43813715 |     43813715 |     43813715 |     93842584 |     93842584 |     93842584 |     93842584 |    195237985 |    195237985 |    195237985 |    195237985 |    537069271 |    537069271 |    537069271 |    537069271 |   1119461845 |   1119461845 |   1119461845 |   1119461845 |
sim_num_refs                                125489 |       125489 |       125489 |       125489 |       256825 |       256825 |       256825 |       256825 |       548117 |       548117 |       548117 |       548117 |      1160912 |      1160912 |      1160912 |      1160912 |      2463447 |      2463447 |      2463447 |      2463447 |      5190630 |      5190630 |      5190630 |      5190630 |     10974854 |     10974854 |     10974854 |     10974854 |     23265329 |     23265329 |     23265329 |     23265329 |     48459404 |     48459404 |     48459404 |     48459404 |    129806245 |    129806245 |    129806245 |    129806245 |    267684978 |    267684978 |    267684978 |    267684978 |
sim_elapsed_time                                 1 |            1 |            7 |            4 |            1 |            1 |           11 |            5 |            1 |            1 |           16 |            8 |            1 |            2 |           27 |           14 |            3 |            3 |           49 |           25 |            6 |            6 |           91 |           45 |           12 |           12 |          168 |           79 |           26 |           26 |          290 |          113 |           53 |           53 |          402 |          141 |          148 |          148 |          503 |          243 |          306 |          306 |          670 |          411 |
sim_inst_rate                          482382.0000 |  482382.0000 |   68911.7143 |  120595.5000 |  979876.0000 |  979876.0000 |   89079.6364 |  195975.2000 | 2125473.0000 | 2125473.0000 |  132842.0625 |  265684.1250 | 4535262.0000 | 2267631.0000 |  167972.6667 |  323947.2857 | 3245140.0000 | 3245140.0000 |  198682.0408 |  389416.8000 | 3431971.1667 | 3431971.1667 |  226283.8132 |  457596.1556 | 3651142.9167 | 3651142.9167 |  260795.9226 |  554603.9873 | 3609330.1538 | 3609330.1538 |  323595.1172 |  830465.3451 | 3683735.5660 | 3683735.5660 |  485666.6294 | 1384666.5603 | 3628846.4257 | 3628846.4257 | 1067732.1491 | 2210161.6091 | 3658372.0425 | 3658372.0425 | 1670838.5746 | 2723751.4477 |
il1.accesses                                482382 |       482382 |       482382 |       482382 |       979876 |       979876 |       979876 |       979876 |      2125473 |      2125473 |      2125473 |      2125473 |      4535262 |      4535262 |      4535262 |      4535262 |      9735420 |      9735420 |      9735420 |      9735420 |     20591827 |     20591827 |     20591827 |     20591827 |     43813715 |     43813715 |     43813715 |     43813715 |     93842584 |     93842584 |     93842584 |     93842584 |    195237985 |    195237985 |    195237985 |    195237985 |    537069271 |    537069271 |    537069271 |    537069271 |   1119461845 |   1119461845 |   1119461845 |   1119461845 |
il1.hits                                    481909 |       481909 |       481948 |       481948 |       979403 |       979403 |       979440 |       979440 |      2125009 |      2125009 |      2125037 |      2125037 |      4534782 |      4534782 |      4534818 |      4534818 |      9734946 |      9734946 |      9734982 |      9734982 |     20591355 |     20591355 |     20591391 |     20591391 |     43813235 |     43813235 |     43813271 |     43813271 |     93842104 |     93842104 |     93842140 |     93842140 |    195237511 |    195237511 |    195237547 |    195237547 |    537068515 |    537068515 |    537068560 |    537068560 |   1119461089 |   1119461089 |   1119461134 |   1119461134 |
il1.misses                                     473 |          473 |          434 |          434 |          473 |          473 |          436 |          436 |          464 |          464 |          436 |          436 |          480 |          480 |          444 |          444 |          474 |          474 |          438 |          438 |          472 |          472 |          436 |          436 |          480 |          480 |          444 |          444 |          480 |          480 |          444 |          444 |          474 |          474 |          438 |          438 |          756 |          756 |          711 |          711 |          756 |          756 |          711 |          711 |
il1.replacements                               233 |          233 |          178 |          178 |          233 |          233 |          180 |          180 |          219 |          219 |          180 |          180 |          237 |          237 |          188 |          188 |          231 |          231 |          182 |          182 |          229 |          229 |          180 |          180 |          237 |          237 |          188 |          188 |          237 |          237 |          188 |          188 |          231 |          231 |          182 |          182 |          500 |          500 |          455 |          455 |          500 |          500 |          455 |          455 |
il1.writebacks                                   0 |            0 |            0 |            0 |            0 |            0 |            0 |            0 |            0 |            0 |            0 |            0 |            0 |            0 |            0 |            0 |            0 |            0 |            0 |            0 |            0 |            0 |            0 |            0 |            0 |            0 |            0 |            0 |            0 |            0 |            0 |            0 |            0 |            0 |            0 |            0 |            0 |            0 |            0 |            0 |            0 |            0 |            0 |            0 |
il1.invalidations                                0 |            0 |            0 |            0 |            0 |            0 |            0 |            0 |            0 |            0 |            0 |            0 |            0 |            0 |            0 |            0 |            0 |            0 |            0 |            0 |            0 |            0 |            0 |            0 |            0 |            0 |            0 |            0 |            0 |            0 |            0 |            0 |            0 |            0 |            0 |            0 |            0 |            0 |            0 |            0 |            0 |            0 |            0 |            0 |
il1.miss_rate                               0.0010 |       0.0010 |       0.0009 |       0.0009 |       0.0005 |       0.0005 |       0.0004 |       0.0004 |       0.0002 |       0.0002 |       0.0002 |       0.0002 |       0.0001 |       0.0001 |       0.0001 |       0.0001 |       0.0000 |       0.0000 |       0.0000 |       0.0000 |       0.0000 |       0.0000 |       0.0000 |       0.0000 |       0.0000 |       0.0000 |       0.0000 |       0.0000 |       0.0000 |       0.0000 |       0.0000 |       0.0000 |       0.0000 |       0.0000 |       0.0000 |       0.0000 |       0.0000 |       0.0000 |       0.0000 |       0.0000 |       0.0000 |       0.0000 |       0.0000 |       0.0000 |
il1.repl_rate                               0.0005 |       0.0005 |       0.0004 |       0.0004 |       0.0002 |       0.0002 |       0.0002 |       0.0002 |       0.0001 |       0.0001 |       0.0001 |       0.0001 |       0.0001 |       0.0001 |       0.0000 |       0.0000 |       0.0000 |       0.0000 |       0.0000 |       0.0000 |       0.0000 |       0.0000 |       0.0000 |       0.0000 |       0.0000 |       0.0000 |       0.0000 |       0.0000 |       0.0000 |       0.0000 |       0.0000 |       0.0000 |       0.0000 |       0.0000 |       0.0000 |       0.0000 |       0.0000 |       0.0000 |       0.0000 |       0.0000 |       0.0000 |       0.0000 |       0.0000 |       0.0000 |
il1.wb_rate                                 0.0000 |       0.0000 |       0.0000 |       0.0000 |       0.0000 |       0.0000 |       0.0000 |       0.0000 |       0.0000 |       0.0000 |       0.0000 |       0.0000 |       0.0000 |       0.0000 |       0.0000 |       0.0000 |       0.0000 |       0.0000 |       0.0000 |       0.0000 |       0.0000 |       0.0000 |       0.0000 |       0.0000 |       0.0000 |       0.0000 |       0.0000 |       0.0000 |       0.0000 |       0.0000 |       0.0000 |       0.0000 |       0.0000 |       0.0000 |       0.0000 |       0.0000 |       0.0000 |       0.0000 |       0.0000 |       0.0000 |       0.0000 |       0.0000 |       0.0000 |       0.0000 |
il1.inv_rate                                0.0000 |       0.0000 |       0.0000 |       0.0000 |       0.0000 |       0.0000 |       0.0000 |       0.0000 |       0.0000 |       0.0000 |       0.0000 |       0.0000 |       0.0000 |       0.0000 |       0.0000 |       0.0000 |       0.0000 |       0.0000 |       0.0000 |       0.0000 |       0.0000 |       0.0000 |       0.0000 |       0.0000 |       0.0000 |       0.0000 |       0.0000 |       0.0000 |       0.0000 |       0.0000 |       0.0000 |       0.0000 |       0.0000 |       0.0000 |       0.0000 |       0.0000 |       0.0000 |       0.0000 |       0.0000 |       0.0000 |       0.0000 |       0.0000 |       0.0000 |       0.0000 |
dl1.accesses                                141955 |       141955 |       141955 |       141955 |       289675 |       289675 |       289675 |       289675 |       613735 |       613735 |       613735 |       613735 |      1292066 |      1292066 |      1292066 |      1292066 |      2725673 |      2725673 |      2725673 |      2725673 |      5715000 |      5715000 |      5715000 |      5715000 |     12023512 |     12023512 |     12023512 |     12023512 |     25362563 |     25362563 |     25362563 |     25362563 |     52653790 |     52653790 |     52653790 |     52653790 |    138194936 |    138194936 |    138194936 |    138194936 |    284462277 |    284462277 |    284462277 |    284462277 |
dl1.hits                                    139195 |       139195 |       139142 |       139142 |       285005 |       285005 |       284902 |       284902 |       602210 |       602210 |       601711 |       601711 |      1264858 |      1264858 |      1265000 |      1265000 |      2661323 |      2661323 |      2660915 |      2660915 |      5567089 |      5567089 |      5567707 |      5567707 |     11681595 |     11681595 |     11684221 |     11684221 |     24569877 |     24569877 |     24578348 |     24578348 |     50962835 |     50962835 |     50982058 |     50982058 |    130242643 |    130242643 |    134450114 |    134450114 |    272279861 |    272279861 |    276907810 |    276907810 |
dl1.misses                                    2760 |         2760 |         2813 |         2813 |         4670 |         4670 |         4773 |         4773 |        11525 |        11525 |        12024 |        12024 |        27208 |        27208 |        27066 |        27066 |        64350 |        64350 |        64758 |        64758 |       147911 |       147911 |       147293 |       147293 |       341917 |       341917 |       339291 |       339291 |       792686 |       792686 |       784215 |       784215 |      1690955 |      1690955 |      1671732 |      1671732 |      7952293 |      7952293 |      3744822 |      3744822 |     12182416 |     12182416 |      7554467 |      7554467 |
dl1.replacements                              2504 |         2504 |         2557 |         2557 |         4414 |         4414 |         4517 |         4517 |        11269 |        11269 |        11768 |        11768 |        26952 |        26952 |        26810 |        26810 |        64094 |        64094 |        64502 |        64502 |       147655 |       147655 |       147037 |       147037 |       341661 |       341661 |       339035 |       339035 |       792430 |       792430 |       783959 |       783959 |      1690699 |      1690699 |      1671476 |      1671476 |      7952037 |      7952037 |      3744566 |      3744566 |     12182160 |     12182160 |      7554211 |      7554211 |
dl1.writebacks                                2088 |         2088 |         2155 |         2155 |         4325 |         4325 |         4482 |         4482 |        10888 |        10888 |        11417 |        11417 |        25637 |        25637 |        25703 |        25703 |        60378 |        60378 |        61383 |        61383 |       139355 |       139355 |       139976 |       139976 |       314170 |       314170 |       315057 |       315057 |       709789 |       709789 |       709396 |       709396 |      1541244 |      1541244 |      1539340 |      1539340 |      5233749 |      5233749 |      3018019 |      3018019 |     10059040 |     10059040 |      6122705 |      6122705 |
dl1.invalidations                                0 |            0 |            0 |            0 |            0 |            0 |            0 |            0 |            0 |            0 |            0 |            0 |            0 |            0 |            0 |            0 |            0 |            0 |            0 |            0 |            0 |            0 |            0 |            0 |            0 |            0 |            0 |            0 |            0 |            0 |            0 |            0 |            0 |            0 |            0 |            0 |            0 |            0 |            0 |            0 |            0 |            0 |            0 |            0 |
dl1.miss_rate                               0.0194 |       0.0194 |       0.0198 |       0.0198 |       0.0161 |       0.0161 |       0.0165 |       0.0165 |       0.0188 |       0.0188 |       0.0196 |       0.0196 |       0.0211 |       0.0211 |       0.0209 |       0.0209 |       0.0236 |       0.0236 |       0.0238 |       0.0238 |       0.0259 |       0.0259 |       0.0258 |       0.0258 |       0.0284 |       0.0284 |       0.0282 |       0.0282 |       0.0313 |       0.0313 |       0.0309 |       0.0309 |       0.0321 |       0.0321 |       0.0317 |       0.0317 |       0.0575 |       0.0575 |       0.0271 |       0.0271 |       0.0428 |       0.0428 |       0.0266 |       0.0266 |
dl1.repl_rate                               0.0176 |       0.0176 |       0.0180 |       0.0180 |       0.0152 |       0.0152 |       0.0156 |       0.0156 |       0.0184 |       0.0184 |       0.0192 |       0.0192 |       0.0209 |       0.0209 |       0.0207 |       0.0207 |       0.0235 |       0.0235 |       0.0237 |       0.0237 |       0.0258 |       0.0258 |       0.0257 |       0.0257 |       0.0284 |       0.0284 |       0.0282 |       0.0282 |       0.0312 |       0.0312 |       0.0309 |       0.0309 |       0.0321 |       0.0321 |       0.0317 |       0.0317 |       0.0575 |       0.0575 |       0.0271 |       0.0271 |       0.0428 |       0.0428 |       0.0266 |       0.0266 |
dl1.wb_rate                                 0.0147 |       0.0147 |       0.0152 |       0.0152 |       0.0149 |       0.0149 |       0.0155 |       0.0155 |       0.0177 |       0.0177 |       0.0186 |       0.0186 |       0.0198 |       0.0198 |       0.0199 |       0.0199 |       0.0222 |       0.0222 |       0.0225 |       0.0225 |       0.0244 |       0.0244 |       0.0245 |       0.0245 |       0.0261 |       0.0261 |       0.0262 |       0.0262 |       0.0280 |       0.0280 |       0.0280 |       0.0280 |       0.0293 |       0.0293 |       0.0292 |       0.0292 |       0.0379 |       0.0379 |       0.0218 |       0.0218 |       0.0354 |       0.0354 |       0.0215 |       0.0215 |
dl1.inv_rate                                0.0000 |       0.0000 |       0.0000 |       0.0000 |       0.0000 |       0.0000 |       0.0000 |       0.0000 |       0.0000 |       0.0000 |       0.0000 |       0.0000 |       0.0000 |       0.0000 |       0.0000 |       0.0000 |       0.0000 |       0.0000 |       0.0000 |       0.0000 |       0.0000 |       0.0000 |       0.0000 |       0.0000 |       0.0000 |       0.0000 |       0.0000 |       0.0000 |       0.0000 |       0.0000 |       0.0000 |       0.0000 |       0.0000 |       0.0000 |       0.0000 |       0.0000 |       0.0000 |       0.0000 |       0.0000 |       0.0000 |       0.0000 |       0.0000 |       0.0000 |       0.0000 |
dl2.accesses                                  5321 |         5321 |         5402 |         5402 |         9468 |         9468 |         9691 |         9691 |        22877 |        22877 |        23877 |        23877 |        53325 |        53325 |        53213 |        53213 |       125202 |       125202 |       126579 |       126579 |       287738 |       287738 |       287705 |       287705 |       656567 |       656567 |       654792 |       654792 |      1502955 |      1502955 |      1494055 |      1494055 |      3232673 |      3232673 |      3211510 |      3211510 |     13186798 |     13186798 |      6763552 |      6763552 |     22242212 |     22242212 |     13677883 |     13677883 |
dl2.hits                                      3896 |         3896 |         4018 |         4018 |         7529 |         7529 |         7793 |         7793 |        19931 |        19931 |        20969 |        20969 |        48320 |        48320 |        48251 |        48251 |       116106 |       116106 |       117526 |       117526 |       270452 |       270452 |       270462 |       270462 |       622889 |       622889 |       621157 |       621157 |      1436509 |      1435857 |      1427652 |      1394711 |      3100086 |      2900525 |      3001134 |      2823527 |     11833529 |     11805305 |      5463592 |      5386754 |     19534054 |     19446425 |     11039117 |     10836548 |
dl2.misses                                    1425 |         1425 |         1384 |         1384 |         1939 |         1939 |         1898 |         1898 |         2946 |         2946 |         2908 |         2908 |         5005 |         5005 |         4962 |         4962 |         9096 |         9096 |         9053 |         9053 |        17286 |        17286 |        17243 |        17243 |        33678 |        33678 |        33635 |        33635 |        66446 |        67098 |        66403 |        99344 |       132587 |       332148 |       210376 |       387983 |      1353269 |      1381493 |      1299960 |      1376798 |      2708158 |      2795787 |      2638766 |      2841335 |
dl2.replacements                               291 |          291 |            0 |            0 |          285 |          285 |            0 |            0 |          286 |          286 |            0 |            0 |          295 |          295 |            0 |            0 |          289 |          289 |            0 |            0 |          295 |          295 |            0 |            0 |          295 |          295 |            0 |            0 |          295 |         1562 |            0 |        33808 |         1515 |       266612 |        79304 |       322447 |      1222197 |      1315957 |      1168888 |      1311262 |      2577086 |      2730251 |      2507694 |      2775799 |
dl2.writebacks                                 154 |          154 |            0 |            0 |          153 |          153 |            0 |            0 |          152 |          152 |            0 |            0 |          153 |          153 |            0 |            0 |          153 |          153 |            0 |            0 |          153 |          153 |            0 |            0 |          153 |          153 |            0 |            0 |          153 |         1279 |            0 |        33558 |         1249 |       265897 |        79072 |       318066 |       741554 |       805725 |       715098 |       826667 |      1574805 |      1696619 |      1533805 |      1765258 |
dl2.invalidations                                0 |            0 |            0 |            0 |            0 |            0 |            0 |            0 |            0 |            0 |            0 |            0 |            0 |            0 |            0 |            0 |            0 |            0 |            0 |            0 |            0 |            0 |            0 |            0 |            0 |            0 |            0 |            0 |            0 |            0 |            0 |            0 |            0 |            0 |            0 |            0 |            0 |            0 |            0 |            0 |            0 |            0 |            0 |            0 |
dl2.miss_rate                               0.2678 |       0.2678 |       0.2562 |       0.2562 |       0.2048 |       0.2048 |       0.1959 |       0.1959 |       0.1288 |       0.1288 |       0.1218 |       0.1218 |       0.0939 |       0.0939 |       0.0932 |       0.0932 |       0.0727 |       0.0727 |       0.0715 |       0.0715 |       0.0601 |       0.0601 |       0.0599 |       0.0599 |       0.0513 |       0.0513 |       0.0514 |       0.0514 |       0.0442 |       0.0446 |       0.0444 |       0.0665 |       0.0410 |       0.1027 |       0.0655 |       0.1208 |       0.1026 |       0.1048 |       0.1922 |       0.2036 |       0.1218 |       0.1257 |       0.1929 |       0.2077 |
dl2.repl_rate                               0.0547 |       0.0547 |       0.0000 |       0.0000 |       0.0301 |       0.0301 |       0.0000 |       0.0000 |       0.0125 |       0.0125 |       0.0000 |       0.0000 |       0.0055 |       0.0055 |       0.0000 |       0.0000 |       0.0023 |       0.0023 |       0.0000 |       0.0000 |       0.0010 |       0.0010 |       0.0000 |       0.0000 |       0.0004 |       0.0004 |       0.0000 |       0.0000 |       0.0002 |       0.0010 |       0.0000 |       0.0226 |       0.0005 |       0.0825 |       0.0247 |       0.1004 |       0.0927 |       0.0998 |       0.1728 |       0.1939 |       0.1159 |       0.1228 |       0.1833 |       0.2029 |
dl2.wb_rate                                 0.0289 |       0.0289 |       0.0000 |       0.0000 |       0.0162 |       0.0162 |       0.0000 |       0.0000 |       0.0066 |       0.0066 |       0.0000 |       0.0000 |       0.0029 |       0.0029 |       0.0000 |       0.0000 |       0.0012 |       0.0012 |       0.0000 |       0.0000 |       0.0005 |       0.0005 |       0.0000 |       0.0000 |       0.0002 |       0.0002 |       0.0000 |       0.0000 |       0.0001 |       0.0009 |       0.0000 |       0.0225 |       0.0004 |       0.0823 |       0.0246 |       0.0990 |       0.0562 |       0.0611 |       0.1057 |       0.1222 |       0.0708 |       0.0763 |       0.1121 |       0.1291 |
dl2.inv_rate                                0.0000 |       0.0000 |       0.0000 |       0.0000 |       0.0000 |       0.0000 |       0.0000 |       0.0000 |       0.0000 |       0.0000 |       0.0000 |       0.0000 |       0.0000 |       0.0000 |       0.0000 |       0.0000 |       0.0000 |       0.0000 |       0.0000 |       0.0000 |       0.0000 |       0.0000 |       0.0000 |       0.0000 |       0.0000 |       0.0000 |       0.0000 |       0.0000 |       0.0000 |       0.0000 |       0.0000 |       0.0000 |       0.0000 |       0.0000 |       0.0000 |       0.0000 |       0.0000 |       0.0000 |       0.0000 |       0.0000 |       0.0000 |       0.0000 |       0.0000 |       0.0000 |
itlb.accesses                               482382 |       482382 |       482382 |       482382 |       979876 |       979876 |       979876 |       979876 |      2125473 |      2125473 |      2125473 |      2125473 |      4535262 |      4535262 |      4535262 |      4535262 |      9735420 |      9735420 |      9735420 |      9735420 |     20591827 |     20591827 |     20591827 |     20591827 |     43813715 |     43813715 |     43813715 |     43813715 |     93842584 |     93842584 |     93842584 |     93842584 |    195237985 |    195237985 |    195237985 |    195237985 |    537069271 |    537069271 |    537069271 |    537069271 |   1119461845 |   1119461845 |   1119461845 |   1119461845 |
itlb.hits                                   482371 |       482371 |       482371 |       482371 |       979865 |       979865 |       979865 |       979865 |      2125462 |      2125462 |      2125462 |      2125462 |      4535250 |      4535250 |      4535250 |      4535250 |      9735408 |      9735408 |      9735408 |      9735408 |     20591815 |     20591815 |     20591815 |     20591815 |     43813703 |     43813703 |     43813703 |     43813703 |     93842572 |     93842572 |     93842572 |     93842572 |    195237973 |    195237973 |    195237973 |    195237973 |    537069259 |    537069259 |    537069259 |    537069259 |   1119461833 |   1119461833 |   1119461833 |   1119461833 |
itlb.misses                                     11 |           11 |           11 |           11 |           11 |           11 |           11 |           11 |           11 |           11 |           11 |           11 |           12 |           12 |           12 |           12 |           12 |           12 |           12 |           12 |           12 |           12 |           12 |           12 |           12 |           12 |           12 |           12 |           12 |           12 |           12 |           12 |           12 |           12 |           12 |           12 |           12 |           12 |           12 |           12 |           12 |           12 |           12 |           12 |
itlb.replacements                                0 |            0 |            0 |            0 |            0 |            0 |            0 |            0 |            0 |            0 |            0 |            0 |            0 |            0 |            0 |            0 |            0 |            0 |            0 |            0 |            0 |            0 |            0 |            0 |            0 |            0 |            0 |            0 |            0 |            0 |            0 |            0 |            0 |            0 |            0 |            0 |            0 |            0 |            0 |            0 |            0 |            0 |            0 |            0 |
itlb.writebacks                                  0 |            0 |            0 |            0 |            0 |            0 |            0 |            0 |            0 |            0 |            0 |            0 |            0 |            0 |            0 |            0 |            0 |            0 |            0 |            0 |            0 |            0 |            0 |            0 |            0 |            0 |            0 |            0 |            0 |            0 |            0 |            0 |            0 |            0 |            0 |            0 |            0 |            0 |            0 |            0 |            0 |            0 |            0 |            0 |
itlb.invalidations                               0 |            0 |            0 |            0 |            0 |            0 |            0 |            0 |            0 |            0 |            0 |            0 |            0 |            0 |            0 |            0 |            0 |            0 |            0 |            0 |            0 |            0 |            0 |            0 |            0 |            0 |            0 |            0 |            0 |            0 |            0 |            0 |            0 |            0 |            0 |            0 |            0 |            0 |            0 |            0 |            0 |            0 |            0 |            0 |
itlb.miss_rate                              0.0000 |       0.0000 |       0.0000 |       0.0000 |       0.0000 |       0.0000 |       0.0000 |       0.0000 |       0.0000 |       0.0000 |       0.0000 |       0.0000 |       0.0000 |       0.0000 |       0.0000 |       0.0000 |       0.0000 |       0.0000 |       0.0000 |       0.0000 |       0.0000 |       0.0000 |       0.0000 |       0.0000 |       0.0000 |       0.0000 |       0.0000 |       0.0000 |       0.0000 |       0.0000 |       0.0000 |       0.0000 |       0.0000 |       0.0000 |       0.0000 |       0.0000 |       0.0000 |       0.0000 |       0.0000 |       0.0000 |       0.0000 |       0.0000 |       0.0000 |       0.0000 |
itlb.repl_rate                              0.0000 |       0.0000 |       0.0000 |       0.0000 |       0.0000 |       0.0000 |       0.0000 |       0.0000 |       0.0000 |       0.0000 |       0.0000 |       0.0000 |       0.0000 |       0.0000 |       0.0000 |       0.0000 |       0.0000 |       0.0000 |       0.0000 |       0.0000 |       0.0000 |       0.0000 |       0.0000 |       0.0000 |       0.0000 |       0.0000 |       0.0000 |       0.0000 |       0.0000 |       0.0000 |       0.0000 |       0.0000 |       0.0000 |       0.0000 |       0.0000 |       0.0000 |       0.0000 |       0.0000 |       0.0000 |       0.0000 |       0.0000 |       0.0000 |       0.0000 |       0.0000 |
itlb.wb_rate                                0.0000 |       0.0000 |       0.0000 |       0.0000 |       0.0000 |       0.0000 |       0.0000 |       0.0000 |       0.0000 |       0.0000 |       0.0000 |       0.0000 |       0.0000 |       0.0000 |       0.0000 |       0.0000 |       0.0000 |       0.0000 |       0.0000 |       0.0000 |       0.0000 |       0.0000 |       0.0000 |       0.0000 |       0.0000 |       0.0000 |       0.0000 |       0.0000 |       0.0000 |       0.0000 |       0.0000 |       0.0000 |       0.0000 |       0.0000 |       0.0000 |       0.0000 |       0.0000 |       0.0000 |       0.0000 |       0.0000 |       0.0000 |       0.0000 |       0.0000 |       0.0000 |
itlb.inv_rate                               0.0000 |       0.0000 |       0.0000 |       0.0000 |       0.0000 |       0.0000 |       0.0000 |       0.0000 |       0.0000 |       0.0000 |       0.0000 |       0.0000 |       0.0000 |       0.0000 |       0.0000 |       0.0000 |       0.0000 |       0.0000 |       0.0000 |       0.0000 |       0.0000 |       0.0000 |       0.0000 |       0.0000 |       0.0000 |       0.0000 |       0.0000 |       0.0000 |       0.0000 |       0.0000 |       0.0000 |       0.0000 |       0.0000 |       0.0000 |       0.0000 |       0.0000 |       0.0000 |       0.0000 |       0.0000 |       0.0000 |       0.0000 |       0.0000 |       0.0000 |       0.0000 |
dtlb.accesses                               141955 |       141955 |       141955 |       141955 |       289675 |       289675 |       289675 |       289675 |       613735 |       613735 |       613735 |       613735 |      1292066 |      1292066 |      1292066 |      1292066 |      2725673 |      2725673 |      2725673 |      2725673 |      5715000 |      5715000 |      5715000 |      5715000 |     12023512 |     12023512 |     12023512 |     12023512 |     25362563 |     25362563 |     25362563 |     25362563 |     52653790 |     52653790 |     52653790 |     52653790 |    138194936 |    138194936 |    138194936 |    138194936 |    284462277 |    284462277 |    284462277 |    284462277 |
dtlb.hits                                   141943 |       141943 |       141943 |       141943 |       289659 |       289659 |       289659 |       289659 |       613711 |       613711 |       613711 |       613711 |      1292026 |      1292026 |      1292026 |      1292026 |      2725601 |      2725601 |      2725601 |      2725601 |      5714832 |      5714832 |      5714832 |      5714832 |     12022790 |     12022790 |     12022790 |     12022790 |     25360212 |     25360212 |     25360212 |     25360212 |     52647866 |     52647866 |     52647866 |     52647866 |    138180404 |    138180404 |    138180404 |    138180404 |    284432558 |    284432558 |    284432558 |    284432558 |
dtlb.misses                                     12 |           12 |           12 |           12 |           16 |           16 |           16 |           16 |           24 |           24 |           24 |           24 |           40 |           40 |           40 |           40 |           72 |           72 |           72 |           72 |          168 |          168 |          168 |          168 |          722 |          722 |          722 |          722 |         2351 |         2351 |         2351 |         2351 |         5924 |         5924 |         5924 |         5924 |        14532 |        14532 |        14532 |        14532 |        29719 |        29719 |        29719 |        29719 |
dtlb.replacements                                0 |            0 |            0 |            0 |            0 |            0 |            0 |            0 |            0 |            0 |            0 |            0 |            0 |            0 |            0 |            0 |            0 |            0 |            0 |            0 |           40 |           40 |           40 |           40 |          594 |          594 |          594 |          594 |         2223 |         2223 |         2223 |         2223 |         5796 |         5796 |         5796 |         5796 |        14404 |        14404 |        14404 |        14404 |        29591 |        29591 |        29591 |        29591 |
dtlb.writebacks                                  0 |            0 |            0 |            0 |            0 |            0 |            0 |            0 |            0 |            0 |            0 |            0 |            0 |            0 |            0 |            0 |            0 |            0 |            0 |            0 |           38 |           38 |           38 |           38 |          592 |          592 |          592 |          592 |         2221 |         2221 |         2221 |         2221 |         5793 |         5793 |         5793 |         5793 |        12340 |        12340 |        12340 |        12340 |        25467 |        25467 |        25467 |        25467 |
dtlb.invalidations                               0 |            0 |            0 |            0 |            0 |            0 |            0 |            0 |            0 |            0 |            0 |            0 |            0 |            0 |            0 |            0 |            0 |            0 |            0 |            0 |            0 |            0 |            0 |            0 |            0 |            0 |            0 |            0 |            0 |            0 |            0 |            0 |            0 |            0 |            0 |            0 |            0 |            0 |            0 |            0 |            0 |            0 |            0 |            0 |
dtlb.miss_rate                              0.0001 |       0.0001 |       0.0001 |       0.0001 |       0.0001 |       0.0001 |       0.0001 |       0.0001 |       0.0000 |       0.0000 |       0.0000 |       0.0000 |       0.0000 |       0.0000 |       0.0000 |       0.0000 |       0.0000 |       0.0000 |       0.0000 |       0.0000 |       0.0000 |       0.0000 |       0.0000 |       0.0000 |       0.0001 |       0.0001 |       0.0001 |       0.0001 |       0.0001 |       0.0001 |       0.0001 |       0.0001 |       0.0001 |       0.0001 |       0.0001 |       0.0001 |       0.0001 |       0.0001 |       0.0001 |       0.0001 |       0.0001 |       0.0001 |       0.0001 |       0.0001 |
dtlb.repl_rate                              0.0000 |       0.0000 |       0.0000 |       0.0000 |       0.0000 |       0.0000 |       0.0000 |       0.0000 |       0.0000 |       0.0000 |       0.0000 |       0.0000 |       0.0000 |       0.0000 |       0.0000 |       0.0000 |       0.0000 |       0.0000 |       0.0000 |       0.0000 |       0.0000 |       0.0000 |       0.0000 |       0.0000 |       0.0000 |       0.0000 |       0.0000 |       0.0000 |       0.0001 |       0.0001 |       0.0001 |       0.0001 |       0.0001 |       0.0001 |       0.0001 |       0.0001 |       0.0001 |       0.0001 |       0.0001 |       0.0001 |       0.0001 |       0.0001 |       0.0001 |       0.0001 |
dtlb.wb_rate                                0.0000 |       0.0000 |       0.0000 |       0.0000 |       0.0000 |       0.0000 |       0.0000 |       0.0000 |       0.0000 |       0.0000 |       0.0000 |       0.0000 |       0.0000 |       0.0000 |       0.0000 |       0.0000 |       0.0000 |       0.0000 |       0.0000 |       0.0000 |       0.0000 |       0.0000 |       0.0000 |       0.0000 |       0.0000 |       0.0000 |       0.0000 |       0.0000 |       0.0001 |       0.0001 |       0.0001 |       0.0001 |       0.0001 |       0.0001 |       0.0001 |       0.0001 |       0.0001 |       0.0001 |       0.0001 |       0.0001 |       0.0001 |       0.0001 |       0.0001 |       0.0001 |
dtlb.inv_rate                               0.0000 |       0.0000 |       0.0000 |       0.0000 |       0.0000 |       0.0000 |       0.0000 |       0.0000 |       0.0000 |       0.0000 |       0.0000 |       0.0000 |       0.0000 |       0.0000 |       0.0000 |       0.0000 |       0.0000 |       0.0000 |       0.0000 |       0.0000 |       0.0000 |       0.0000 |       0.0000 |       0.0000 |       0.0000 |       0.0000 |       0.0000 |       0.0000 |       0.0000 |       0.0000 |       0.0000 |       0.0000 |       0.0000 |       0.0000 |       0.0000 |       0.0000 |       0.0000 |       0.0000 |       0.0000 |       0.0000 |       0.0000 |       0.0000 |       0.0000 |       0.0000 |
ld_text_base                            0x00400000 |   0x00400000 |   0x00400000 |   0x00400000 |   0x00400000 |   0x00400000 |   0x00400000 |   0x00400000 |   0x00400000 |   0x00400000 |   0x00400000 |   0x00400000 |   0x00400000 |   0x00400000 |   0x00400000 |   0x00400000 |   0x00400000 |   0x00400000 |   0x00400000 |   0x00400000 |   0x00400000 |   0x00400000 |   0x00400000 |   0x00400000 |   0x00400000 |   0x00400000 |   0x00400000 |   0x00400000 |   0x00400000 |   0x00400000 |   0x00400000 |   0x00400000 |   0x00400000 |   0x00400000 |   0x00400000 |   0x00400000 |   0x00400000 |   0x00400000 |   0x00400000 |   0x00400000 |   0x00400000 |   0x00400000 |   0x00400000 |   0x00400000 |
ld_text_size                                 78496 |        78496 |        78496 |        78496 |        78528 |        78528 |        78528 |        78528 |        78544 |        78544 |        78544 |        78544 |        78560 |        78560 |        78560 |        78560 |        78560 |        78560 |        78560 |        78560 |        78560 |        78560 |        78560 |        78560 |        78560 |        78560 |        78560 |        78560 |        78560 |        78560 |        78560 |        78560 |        78560 |        78560 |        78560 |        78560 |        78560 |        78560 |        78560 |        78560 |        78560 |        78560 |        78560 |        78560 |
ld_data_base                            0x10000000 |   0x10000000 |   0x10000000 |   0x10000000 |   0x10000000 |   0x10000000 |   0x10000000 |   0x10000000 |   0x10000000 |   0x10000000 |   0x10000000 |   0x10000000 |   0x10000000 |   0x10000000 |   0x10000000 |   0x10000000 |   0x10000000 |   0x10000000 |   0x10000000 |   0x10000000 |   0x10000000 |   0x10000000 |   0x10000000 |   0x10000000 |   0x10000000 |   0x10000000 |   0x10000000 |   0x10000000 |   0x10000000 |   0x10000000 |   0x10000000 |   0x10000000 |   0x10000000 |   0x10000000 |   0x10000000 |   0x10000000 |   0x10000000 |   0x10000000 |   0x10000000 |   0x10000000 |   0x10000000 |   0x10000000 |   0x10000000 |   0x10000000 |
ld_data_size                                  8192 |         8192 |         8192 |         8192 |         8192 |         8192 |         8192 |         8192 |         8192 |         8192 |         8192 |         8192 |         8192 |         8192 |         8192 |         8192 |         8192 |         8192 |         8192 |         8192 |         8192 |         8192 |         8192 |         8192 |         8192 |         8192 |         8192 |         8192 |         8192 |         8192 |         8192 |         8192 |         8192 |         8192 |         8192 |         8192 |         8192 |         8192 |         8192 |         8192 |         8192 |         8192 |         8192 |         8192 |
ld_stack_base                           0x7fffc000 |   0x7fffc000 |   0x7fffc000 |   0x7fffc000 |   0x7fffc000 |   0x7fffc000 |   0x7fffc000 |   0x7fffc000 |   0x7fffc000 |   0x7fffc000 |   0x7fffc000 |   0x7fffc000 |   0x7fffc000 |   0x7fffc000 |   0x7fffc000 |   0x7fffc000 |   0x7fffc000 |   0x7fffc000 |   0x7fffc000 |   0x7fffc000 |   0x7fffc000 |   0x7fffc000 |   0x7fffc000 |   0x7fffc000 |   0x7fffc000 |   0x7fffc000 |   0x7fffc000 |   0x7fffc000 |   0x7fffc000 |   0x7fffc000 |   0x7fffc000 |   0x7fffc000 |   0x7fffc000 |   0x7fffc000 |   0x7fffc000 |   0x7fffc000 |   0x7fffc000 |   0x7fffc000 |   0x7fffc000 |   0x7fffc000 |   0x7fffc000 |   0x7fffc000 |   0x7fffc000 |   0x7fffc000 |
ld_stack_size                                16384 |        16384 |        16384 |        16384 |        16384 |        16384 |        16384 |        16384 |        16384 |        16384 |        16384 |        16384 |        16384 |        16384 |        16384 |        16384 |        16384 |        16384 |        16384 |        16384 |        16384 |        16384 |        16384 |        16384 |        16384 |        16384 |        16384 |        16384 |        16384 |        16384 |        16384 |        16384 |        16384 |        16384 |        16384 |        16384 |        16384 |        16384 |        16384 |        16384 |        16384 |        16384 |        16384 |        16384 |
ld_prog_entry                           0x00400140 |   0x00400140 |   0x00400140 |   0x00400140 |   0x00400140 |   0x00400140 |   0x00400140 |   0x00400140 |   0x00400140 |   0x00400140 |   0x00400140 |   0x00400140 |   0x00400140 |   0x00400140 |   0x00400140 |   0x00400140 |   0x00400140 |   0x00400140 |   0x00400140 |   0x00400140 |   0x00400140 |   0x00400140 |   0x00400140 |   0x00400140 |   0x00400140 |   0x00400140 |   0x00400140 |   0x00400140 |   0x00400140 |   0x00400140 |   0x00400140 |   0x00400140 |   0x00400140 |   0x00400140 |   0x00400140 |   0x00400140 |   0x00400140 |   0x00400140 |   0x00400140 |   0x00400140 |   0x00400140 |   0x00400140 |   0x00400140 |   0x00400140 |
ld_environ_base                         0x7fff8000 |   0x7fff8000 |   0x7fff8000 |   0x7fff8000 |   0x7fff8000 |   0x7fff8000 |   0x7fff8000 |   0x7fff8000 |   0x7fff8000 |   0x7fff8000 |   0x7fff8000 |   0x7fff8000 |   0x7fff8000 |   0x7fff8000 |   0x7fff8000 |   0x7fff8000 |   0x7fff8000 |   0x7fff8000 |   0x7fff8000 |   0x7fff8000 |   0x7fff8000 |   0x7fff8000 |   0x7fff8000 |   0x7fff8000 |   0x7fff8000 |   0x7fff8000 |   0x7fff8000 |   0x7fff8000 |   0x7fff8000 |   0x7fff8000 |   0x7fff8000 |   0x7fff8000 |   0x7fff8000 |   0x7fff8000 |   0x7fff8000 |   0x7fff8000 |   0x7fff8000 |   0x7fff8000 |   0x7fff8000 |   0x7fff8000 |   0x7fff8000 |   0x7fff8000 |   0x7fff8000 |   0x7fff8000 |
ld_target_big_endian                             0 |            0 |            0 |            0 |            0 |            0 |            0 |            0 |            0 |            0 |            0 |            0 |            0 |            0 |            0 |            0 |            0 |            0 |            0 |            0 |            0 |            0 |            0 |            0 |            0 |            0 |            0 |            0 |            0 |            0 |            0 |            0 |            0 |            0 |            0 |            0 |            0 |            0 |            0 |            0 |            0 |            0 |            0 |            0 |
mem.page_count                                  32 |           32 |           32 |           32 |           36 |           36 |           36 |           36 |           44 |           44 |           44 |           44 |           60 |           60 |           60 |           60 |           92 |           92 |           92 |           92 |          156 |          156 |          156 |          156 |          284 |          284 |          284 |          284 |          540 |          540 |          540 |          540 |         1052 |         1052 |         1052 |         1052 |         4148 |         4148 |         4148 |         4148 |         8265 |         8265 |         8265 |         8265 |
mem.page_mem                                  128k |         128k |         128k |         128k |         144k |         144k |         144k |         144k |         176k |         176k |         176k |         176k |         240k |         240k |         240k |         240k |         368k |         368k |         368k |         368k |         624k |         624k |         624k |         624k |        1136k |        1136k |        1136k |        1136k |        2160k |        2160k |        2160k |        2160k |        4208k |        4208k |        4208k |        4208k |       16592k |       16592k |       16592k |       16592k |       33060k |       33060k |       33060k |       33060k |
mem.ptab_misses                                 32 |           32 |           32 |           32 |           36 |           36 |           36 |           36 |           44 |           44 |           44 |           44 |           60 |           60 |           60 |           60 |           92 |           92 |           92 |           92 |          156 |          156 |          156 |          156 |          284 |          284 |          284 |          284 |          540 |          540 |          540 |          540 |         1052 |         1052 |         1052 |         1052 |        14386 |        14386 |        14386 |        14386 |        26679 |        26679 |        26679 |        26679 |
mem.ptab_accesses                          2699070 |      2699070 |      2699070 |      2699070 |      4984678 |      4984678 |      4984678 |      4984678 |     10215282 |     10215282 |     10215282 |     10215282 |     21211196 |     21211196 |     21211196 |     21211196 |     44879042 |     44879042 |     44879042 |     44879042 |     94283324 |     94283324 |     94283324 |     94283324 |    199787900 |    199787900 |    199787900 |    199787900 |    426581478 |    426581478 |    426581478 |    426581478 |    886745536 |    886745536 |    886745536 |    886745536 |   2425152972 |   2425152972 |   2425152972 |   2425152972 |   5047257950 |   5047257950 |   5047257950 |   5047257950 |
mem.ptab_miss_rate                          0.0000 |       0.0000 |       0.0000 |       0.0000 |       0.0000 |       0.0000 |       0.0000 |       0.0000 |       0.0000 |       0.0000 |       0.0000 |       0.0000 |       0.0000 |       0.0000 |       0.0000 |       0.0000 |       0.0000 |       0.0000 |       0.0000 |       0.0000 |       0.0000 |       0.0000 |       0.0000 |       0.0000 |       0.0000 |       0.0000 |       0.0000 |       0.0000 |       0.0000 |       0.0000 |       0.0000 |       0.0000 |       0.0000 |       0.0000 |       0.0000 |       0.0000 |       0.0000 |       0.0000 |       0.0000 |       0.0000 |       0.0000 |       0.0000 |       0.0000 |       0.0000 |
-------------------------------------------------------------------------------------------------
sim-bpred                                     4096 |         4096 |         4096 |         4096 |         4096 |         4096 |         4096 |         8192 |         8192 |         8192 |         8192 |         8192 |         8192 |         8192 |        16384 |        16384 |        16384 |        16384 |        16384 |        16384 |        16384 |        32768 |        32768 |        32768 |        32768 |        32768 |        32768 |        32768 |        65536 |        65536 |        65536 |        65536 |        65536 |        65536 |        65536 |       131072 |       131072 |       131072 |       131072 |       131072 |       131072 |       131072 |       262144 |       262144 |       262144 |       262144 |       262144 |       262144 |       262144 |       524288 |       524288 |       524288 |       524288 |       524288 |       524288 |       524288 |      1048576 |      1048576 |      1048576 |      1048576 |      1048576 |      1048576 |      1048576 |      2097152 |      2097152 |      2097152 |      2097152 |      2097152 |      2097152 |      2097152 |      4194304 |      4194304 |      4194304 |      4194304 |      4194304 |      4194304 |      4194304 |
-bpred bimod -bpred:bimod 512
-bpred bimod -bpred:bimod 1024
-bpred bimod -bpred:bimod 2048
-bpred 2lev -bpred:2lev 1 512 10 1
-bpred 2lev -bpred:2lev 1 1024 10 1
-bpred 2lev -bpred:2lev 1 2048 10 1
-bpred 2lev -bpred:2lev 1 4096 10 1
-------------------------------------------------------------------------------------------------
sim_num_insn                                482382 |       482382 |       482382 |       482382 |       482382 |       482382 |       482382 |       979876 |       979876 |       979876 |       979876 |       979876 |       979876 |       979876 |      2125473 |      2125473 |      2125473 |      2125473 |      2125473 |      2125473 |      2125473 |      4535262 |      4535262 |      4535262 |      4535262 |      4535262 |      4535262 |      4535262 |      9735420 |      9735420 |      9735420 |      9735420 |      9735420 |      9735420 |      9735420 |     20591827 |     20591827 |     20591827 |     20591827 |     20591827 |     20591827 |     20591827 |     43813715 |     43813715 |     43813715 |     43813715 |     43813715 |     43813715 |     43813715 |     93842584 |     93842584 |     93842584 |     93842584 |     93842584 |     93842584 |     93842584 |    195237985 |    195237985 |    195237985 |    195237985 |    195237985 |    195237985 |    195237985 |    537069271 |    537069271 |    537069271 |    537069271 |    537069271 |    537069271 |    537069271 |   1119461845 |   1119461845 |   1119461845 |   1119461845 |   1119461845 |   1119461845 |   1119461845 |
sim_num_refs                                125489 |       125489 |       125489 |       125489 |       125489 |       125489 |       125489 |       256825 |       256825 |       256825 |       256825 |       256825 |       256825 |       256825 |       548117 |       548117 |       548117 |       548117 |       548117 |       548117 |       548117 |      1160912 |      1160912 |      1160912 |      1160912 |      1160912 |      1160912 |      1160912 |      2463447 |      2463447 |      2463447 |      2463447 |      2463447 |      2463447 |      2463447 |      5190630 |      5190630 |      5190630 |      5190630 |      5190630 |      5190630 |      5190630 |     10974854 |     10974854 |     10974854 |     10974854 |     10974854 |     10974854 |     10974854 |     23265329 |     23265329 |     23265329 |     23265329 |     23265329 |     23265329 |     23265329 |     48459404 |     48459404 |     48459404 |     48459404 |     48459404 |     48459404 |     48459404 |    129806245 |    129806245 |    129806245 |    129806245 |    129806245 |    129806245 |    129806245 |    267684978 |    267684978 |    267684978 |    267684978 |    267684978 |    267684978 |    267684978 |
sim_elapsed_time                                 1 |            1 |            1 |            1 |            1 |            1 |            1 |            1 |            1 |            1 |            1 |            1 |            1 |            1 |            1 |            1 |            1 |            1 |            1 |            1 |            1 |            1 |            1 |            1 |            1 |            1 |            1 |            1 |            1 |            2 |            1 |            1 |            1 |            2 |            1 |            2 |            3 |            2 |            3 |            2 |            3 |            3 |            5 |            5 |            6 |            5 |            6 |            5 |            6 |           11 |           12 |           11 |           12 |           12 |           12 |           12 |           24 |           24 |           24 |           25 |           24 |           24 |           25 |           68 |           69 |           68 |           69 |           70 |           69 |           69 |          143 |          143 |          142 |          146 |          144 |          144 |          144 |
sim_inst_rate                          482382.0000 |  482382.0000 |  482382.0000 |  482382.0000 |  482382.0000 |  482382.0000 |  482382.0000 |  979876.0000 |  979876.0000 |  979876.0000 |  979876.0000 |  979876.0000 |  979876.0000 |  979876.0000 | 2125473.0000 | 2125473.0000 | 2125473.0000 | 2125473.0000 | 2125473.0000 | 2125473.0000 | 2125473.0000 | 4535262.0000 | 4535262.0000 | 4535262.0000 | 4535262.0000 | 4535262.0000 | 4535262.0000 | 4535262.0000 | 9735420.0000 | 4867710.0000 | 9735420.0000 | 9735420.0000 | 9735420.0000 | 4867710.0000 | 9735420.0000 |10295913.5000 | 6863942.3333 |10295913.5000 | 6863942.3333 |10295913.5000 | 6863942.3333 | 6863942.3333 | 8762743.0000 | 8762743.0000 | 7302285.8333 | 8762743.0000 | 7302285.8333 | 8762743.0000 | 7302285.8333 | 8531144.0000 | 7820215.3333 | 8531144.0000 | 7820215.3333 | 7820215.3333 | 7820215.3333 | 7820215.3333 | 8134916.0417 | 8134916.0417 | 8134916.0417 | 7809519.4000 | 8134916.0417 | 8134916.0417 | 7809519.4000 | 7898077.5147 | 7783612.6232 | 7898077.5147 | 7783612.6232 | 7672418.1571 | 7783612.6232 | 7783612.6232 | 7828404.5105 | 7828404.5105 | 7883534.1197 | 7667546.8836 | 7774040.5903 | 7774040.5903 | 7774040.5903 |
sim_num_branches                             78856 |        78856 |        78856 |        78856 |        78856 |        78856 |        78856 |       162081 |       162081 |       162081 |       162081 |       162081 |       162081 |       162081 |       353631 |       353631 |       353631 |       353631 |       353631 |       353631 |       353631 |       759900 |       759900 |       759900 |       759900 |       759900 |       759900 |       759900 |      1635306 |      1635306 |      1635306 |      1635306 |      1635306 |      1635306 |      1635306 |      3473466 |      3473466 |      3473466 |      3473466 |      3473466 |      3473466 |      3473466 |      7426911 |      7426911 |      7426911 |      7426911 |      7426911 |      7426911 |      7426911 |     15944281 |     15944281 |     15944281 |     15944281 |     15944281 |     15944281 |     15944281 |     33262415 |     33262415 |     33262415 |     33262415 |     33262415 |     33262415 |     33262415 |     85631005 |     85631005 |     85631005 |     85631005 |     85631005 |     85631005 |     85631005 |    182320934 |    182320934 |    182320934 |    182320934 |    182320934 |    182320934 |    182320934 |
sim_IPB                                     6.1173 |       6.1173 |       6.1173 |       6.1173 |       6.1173 |       6.1173 |       6.1173 |       6.0456 |       6.0456 |       6.0456 |       6.0456 |       6.0456 |       6.0456 |       6.0456 |       6.0104 |       6.0104 |       6.0104 |       6.0104 |       6.0104 |       6.0104 |       6.0104 |       5.9682 |       5.9682 |       5.9682 |       5.9682 |       5.9682 |       5.9682 |       5.9682 |       5.9533 |       5.9533 |       5.9533 |       5.9533 |       5.9533 |       5.9533 |       5.9533 |       5.9283 |       5.9283 |       5.9283 |       5.9283 |       5.9283 |       5.9283 |       5.9283 |       5.8993 |       5.8993 |       5.8993 |       5.8993 |       5.8993 |       5.8993 |       5.8993 |       5.8857 |       5.8857 |       5.8857 |       5.8857 |       5.8857 |       5.8857 |       5.8857 |       5.8696 |       5.8696 |       5.8696 |       5.8696 |       5.8696 |       5.8696 |       5.8696 |       6.2719 |       6.2719 |       6.2719 |       6.2719 |       6.2719 |       6.2719 |       6.2719 |       6.1401 |       6.1401 |       6.1401 |       6.1401 |       6.1401 |       6.1401 |       6.1401 |
bpred_bimod.lookups                          78856 |        78856 |        78856 |xxxxxxxxxxxxx |xxxxxxxxxxxxx |xxxxxxxxxxxxx |xxxxxxxxxxxxx |       162081 |       162081 |       162081 |xxxxxxxxxxxxx |xxxxxxxxxxxxx |xxxxxxxxxxxxx |xxxxxxxxxxxxx |       353631 |       353631 |       353631 |xxxxxxxxxxxxx |xxxxxxxxxxxxx |xxxxxxxxxxxxx |xxxxxxxxxxxxx |       759900 |       759900 |       759900 |xxxxxxxxxxxxx |xxxxxxxxxxxxx |xxxxxxxxxxxxx |xxxxxxxxxxxxx |      1635306 |      1635306 |      1635306 |xxxxxxxxxxxxx |xxxxxxxxxxxxx |xxxxxxxxxxxxx |xxxxxxxxxxxxx |      3473466 |      3473466 |      3473466 |xxxxxxxxxxxxx |xxxxxxxxxxxxx |xxxxxxxxxxxxx |xxxxxxxxxxxxx |      7426911 |      7426911 |      7426911 |xxxxxxxxxxxxx |xxxxxxxxxxxxx |xxxxxxxxxxxxx |xxxxxxxxxxxxx |     15944281 |     15944281 |     15944281 |xxxxxxxxxxxxx |xxxxxxxxxxxxx |xxxxxxxxxxxxx |xxxxxxxxxxxxx |     33262415 |     33262415 |     33262415 |xxxxxxxxxxxxx |xxxxxxxxxxxxx |xxxxxxxxxxxxx |xxxxxxxxxxxxx |     85631005 |     85631005 |     85631005 |xxxxxxxxxxxxx |xxxxxxxxxxxxx |xxxxxxxxxxxxx |xxxxxxxxxxxxx |    182320934 |    182320934 |    182320934 |
bpred_bimod.updates                          78856 |        78856 |        78856 |xxxxxxxxxxxxx |xxxxxxxxxxxxx |xxxxxxxxxxxxx |xxxxxxxxxxxxx |       162081 |       162081 |       162081 |xxxxxxxxxxxxx |xxxxxxxxxxxxx |xxxxxxxxxxxxx |xxxxxxxxxxxxx |       353631 |       353631 |       353631 |xxxxxxxxxxxxx |xxxxxxxxxxxxx |xxxxxxxxxxxxx |xxxxxxxxxxxxx |       759900 |       759900 |       759900 |xxxxxxxxxxxxx |xxxxxxxxxxxxx |xxxxxxxxxxxxx |xxxxxxxxxxxxx |      1635306 |      1635306 |      1635306 |xxxxxxxxxxxxx |xxxxxxxxxxxxx |xxxxxxxxxxxxx |xxxxxxxxxxxxx |      3473466 |      3473466 |      3473466 |xxxxxxxxxxxxx |xxxxxxxxxxxxx |xxxxxxxxxxxxx |xxxxxxxxxxxxx |      7426911 |      7426911 |      7426911 |xxxxxxxxxxxxx |xxxxxxxxxxxxx |xxxxxxxxxxxxx |xxxxxxxxxxxxx |     15944281 |     15944281 |     15944281 |xxxxxxxxxxxxx |xxxxxxxxxxxxx |xxxxxxxxxxxxx |xxxxxxxxxxxxx |     33262415 |     33262415 |     33262415 |xxxxxxxxxxxxx |xxxxxxxxxxxxx |xxxxxxxxxxxxx |xxxxxxxxxxxxx |     85631005 |     85631005 |     85631005 |xxxxxxxxxxxxx |xxxxxxxxxxxxx |xxxxxxxxxxxxx |xxxxxxxxxxxxx |    182320934 |    182320934 |    182320934 |
bpred_bimod.addr_hits                        57782 |        57783 |        57784 |xxxxxxxxxxxxx |xxxxxxxxxxxxx |xxxxxxxxxxxxx |xxxxxxxxxxxxx |       114610 |       114608 |       114609 |xxxxxxxxxxxxx |xxxxxxxxxxxxx |xxxxxxxxxxxxx |xxxxxxxxxxxxx |       253691 |       253693 |       253694 |xxxxxxxxxxxxx |xxxxxxxxxxxxx |xxxxxxxxxxxxx |xxxxxxxxxxxxx |       544055 |       544053 |       544053 |xxxxxxxxxxxxx |xxxxxxxxxxxxx |xxxxxxxxxxxxx |xxxxxxxxxxxxx |      1180528 |      1180527 |      1180527 |xxxxxxxxxxxxx |xxxxxxxxxxxxx |xxxxxxxxxxxxx |xxxxxxxxxxxxx |      2509088 |      2509089 |      2509089 |xxxxxxxxxxxxx |xxxxxxxxxxxxx |xxxxxxxxxxxxx |xxxxxxxxxxxxx |      5380608 |      5380608 |      5380608 |xxxxxxxxxxxxx |xxxxxxxxxxxxx |xxxxxxxxxxxxx |xxxxxxxxxxxxx |     11689044 |     11689044 |     11689044 |xxxxxxxxxxxxx |xxxxxxxxxxxxx |xxxxxxxxxxxxx |xxxxxxxxxxxxx |     24177009 |     24177009 |     24177009 |xxxxxxxxxxxxx |xxxxxxxxxxxxx |xxxxxxxxxxxxx |xxxxxxxxxxxxx |     64189019 |     64189046 |     64189049 |xxxxxxxxxxxxx |xxxxxxxxxxxxx |xxxxxxxxxxxxx |xxxxxxxxxxxxx |    140184687 |    140184737 |    140184740 |
bpred_bimod.dir_hits                         57895 |        57895 |        57896 |xxxxxxxxxxxxx |xxxxxxxxxxxxx |xxxxxxxxxxxxx |xxxxxxxxxxxxx |       114725 |       114722 |       114723 |xxxxxxxxxxxxx |xxxxxxxxxxxxx |xxxxxxxxxxxxx |xxxxxxxxxxxxx |       253806 |       253806 |       253807 |xxxxxxxxxxxxx |xxxxxxxxxxxxx |xxxxxxxxxxxxx |xxxxxxxxxxxxx |       544171 |       544167 |       544167 |xxxxxxxxxxxxx |xxxxxxxxxxxxx |xxxxxxxxxxxxx |xxxxxxxxxxxxx |      1180641 |      1180638 |      1180638 |xxxxxxxxxxxxx |xxxxxxxxxxxxx |xxxxxxxxxxxxx |xxxxxxxxxxxxx |      2509201 |      2509200 |      2509200 |xxxxxxxxxxxxx |xxxxxxxxxxxxx |xxxxxxxxxxxxx |xxxxxxxxxxxxx |      5380723 |      5380721 |      5380721 |xxxxxxxxxxxxx |xxxxxxxxxxxxx |xxxxxxxxxxxxx |xxxxxxxxxxxxx |     11689161 |     11689159 |     11689159 |xxxxxxxxxxxxx |xxxxxxxxxxxxx |xxxxxxxxxxxxx |xxxxxxxxxxxxx |     24177126 |     24177124 |     24177124 |xxxxxxxxxxxxx |xxxxxxxxxxxxx |xxxxxxxxxxxxx |xxxxxxxxxxxxx |     64189175 |     64189202 |     64189205 |xxxxxxxxxxxxx |xxxxxxxxxxxxx |xxxxxxxxxxxxx |xxxxxxxxxxxxx |    140184851 |    140184900 |    140184903 |
bpred_bimod.misses                           20961 |        20961 |        20960 |xxxxxxxxxxxxx |xxxxxxxxxxxxx |xxxxxxxxxxxxx |xxxxxxxxxxxxx |        47356 |        47359 |        47358 |xxxxxxxxxxxxx |xxxxxxxxxxxxx |xxxxxxxxxxxxx |xxxxxxxxxxxxx |        99825 |        99825 |        99824 |xxxxxxxxxxxxx |xxxxxxxxxxxxx |xxxxxxxxxxxxx |xxxxxxxxxxxxx |       215729 |       215733 |       215733 |xxxxxxxxxxxxx |xxxxxxxxxxxxx |xxxxxxxxxxxxx |xxxxxxxxxxxxx |       454665 |       454668 |       454668 |xxxxxxxxxxxxx |xxxxxxxxxxxxx |xxxxxxxxxxxxx |xxxxxxxxxxxxx |       964265 |       964266 |       964266 |xxxxxxxxxxxxx |xxxxxxxxxxxxx |xxxxxxxxxxxxx |xxxxxxxxxxxxx |      2046188 |      2046190 |      2046190 |xxxxxxxxxxxxx |xxxxxxxxxxxxx |xxxxxxxxxxxxx |xxxxxxxxxxxxx |      4255120 |      4255122 |      4255122 |xxxxxxxxxxxxx |xxxxxxxxxxxxx |xxxxxxxxxxxxx |xxxxxxxxxxxxx |      9085289 |      9085291 |      9085291 |xxxxxxxxxxxxx |xxxxxxxxxxxxx |xxxxxxxxxxxxx |xxxxxxxxxxxxx |     21441830 |     21441803 |     21441800 |xxxxxxxxxxxxx |xxxxxxxxxxxxx |xxxxxxxxxxxxx |xxxxxxxxxxxxx |     42136083 |     42136034 |     42136031 |
bpred_bimod.jr_hits                             65 |           65 |           65 |xxxxxxxxxxxxx |xxxxxxxxxxxxx |xxxxxxxxxxxxx |xxxxxxxxxxxxx |           65 |           65 |           65 |xxxxxxxxxxxxx |xxxxxxxxxxxxx |xxxxxxxxxxxxx |xxxxxxxxxxxxx |           65 |           65 |           65 |xxxxxxxxxxxxx |xxxxxxxxxxxxx |xxxxxxxxxxxxx |xxxxxxxxxxxxx |           65 |           65 |           65 |xxxxxxxxxxxxx |xxxxxxxxxxxxx |xxxxxxxxxxxxx |xxxxxxxxxxxxx |           65 |           65 |           65 |xxxxxxxxxxxxx |xxxxxxxxxxxxx |xxxxxxxxxxxxx |xxxxxxxxxxxxx |           65 |           65 |           65 |xxxxxxxxxxxxx |xxxxxxxxxxxxx |xxxxxxxxxxxxx |xxxxxxxxxxxxx |           65 |           65 |           65 |xxxxxxxxxxxxx |xxxxxxxxxxxxx |xxxxxxxxxxxxx |xxxxxxxxxxxxx |           65 |           65 |           65 |xxxxxxxxxxxxx |xxxxxxxxxxxxx |xxxxxxxxxxxxx |xxxxxxxxxxxxx |           65 |           65 |           65 |xxxxxxxxxxxxx |xxxxxxxxxxxxx |xxxxxxxxxxxxx |xxxxxxxxxxxxx |          110 |          110 |          110 |xxxxxxxxxxxxx |xxxxxxxxxxxxx |xxxxxxxxxxxxx |xxxxxxxxxxxxx |          122 |          122 |          122 |
bpred_bimod.jr_seen                             65 |           65 |           65 |xxxxxxxxxxxxx |xxxxxxxxxxxxx |xxxxxxxxxxxxx |xxxxxxxxxxxxx |           65 |           65 |           65 |xxxxxxxxxxxxx |xxxxxxxxxxxxx |xxxxxxxxxxxxx |xxxxxxxxxxxxx |           65 |           65 |           65 |xxxxxxxxxxxxx |xxxxxxxxxxxxx |xxxxxxxxxxxxx |xxxxxxxxxxxxx |           65 |           65 |           65 |xxxxxxxxxxxxx |xxxxxxxxxxxxx |xxxxxxxxxxxxx |xxxxxxxxxxxxx |           65 |           65 |           65 |xxxxxxxxxxxxx |xxxxxxxxxxxxx |xxxxxxxxxxxxx |xxxxxxxxxxxxx |           65 |           65 |           65 |xxxxxxxxxxxxx |xxxxxxxxxxxxx |xxxxxxxxxxxxx |xxxxxxxxxxxxx |           65 |           65 |           65 |xxxxxxxxxxxxx |xxxxxxxxxxxxx |xxxxxxxxxxxxx |xxxxxxxxxxxxx |           65 |           65 |           65 |xxxxxxxxxxxxx |xxxxxxxxxxxxx |xxxxxxxxxxxxx |xxxxxxxxxxxxx |           65 |           65 |           65 |xxxxxxxxxxxxx |xxxxxxxxxxxxx |xxxxxxxxxxxxx |xxxxxxxxxxxxx |          111 |          111 |          111 |xxxxxxxxxxxxx |xxxxxxxxxxxxx |xxxxxxxxxxxxx |xxxxxxxxxxxxx |          123 |          123 |          123 |
bpred_bimod.jr_non_ras_hits.PP                   0 |            0 |            0 |xxxxxxxxxxxxx |xxxxxxxxxxxxx |xxxxxxxxxxxxx |xxxxxxxxxxxxx |            0 |            0 |            0 |xxxxxxxxxxxxx |xxxxxxxxxxxxx |xxxxxxxxxxxxx |xxxxxxxxxxxxx |            0 |            0 |            0 |xxxxxxxxxxxxx |xxxxxxxxxxxxx |xxxxxxxxxxxxx |xxxxxxxxxxxxx |            0 |            0 |            0 |xxxxxxxxxxxxx |xxxxxxxxxxxxx |xxxxxxxxxxxxx |xxxxxxxxxxxxx |            0 |            0 |            0 |xxxxxxxxxxxxx |xxxxxxxxxxxxx |xxxxxxxxxxxxx |xxxxxxxxxxxxx |            0 |            0 |            0 |xxxxxxxxxxxxx |xxxxxxxxxxxxx |xxxxxxxxxxxxx |xxxxxxxxxxxxx |            0 |            0 |            0 |xxxxxxxxxxxxx |xxxxxxxxxxxxx |xxxxxxxxxxxxx |xxxxxxxxxxxxx |            0 |            0 |            0 |xxxxxxxxxxxxx |xxxxxxxxxxxxx |xxxxxxxxxxxxx |xxxxxxxxxxxxx |            0 |            0 |            0 |xxxxxxxxxxxxx |xxxxxxxxxxxxx |xxxxxxxxxxxxx |xxxxxxxxxxxxx |            0 |            0 |            0 |xxxxxxxxxxxxx |xxxxxxxxxxxxx |xxxxxxxxxxxxx |xxxxxxxxxxxxx |            0 |            0 |            0 |
bpred_bimod.jr_non_ras_seen.PP                   0 |            0 |            0 |xxxxxxxxxxxxx |xxxxxxxxxxxxx |xxxxxxxxxxxxx |xxxxxxxxxxxxx |            0 |            0 |            0 |xxxxxxxxxxxxx |xxxxxxxxxxxxx |xxxxxxxxxxxxx |xxxxxxxxxxxxx |            0 |            0 |            0 |xxxxxxxxxxxxx |xxxxxxxxxxxxx |xxxxxxxxxxxxx |xxxxxxxxxxxxx |            0 |            0 |            0 |xxxxxxxxxxxxx |xxxxxxxxxxxxx |xxxxxxxxxxxxx |xxxxxxxxxxxxx |            0 |            0 |            0 |xxxxxxxxxxxxx |xxxxxxxxxxxxx |xxxxxxxxxxxxx |xxxxxxxxxxxxx |            0 |            0 |            0 |xxxxxxxxxxxxx |xxxxxxxxxxxxx |xxxxxxxxxxxxx |xxxxxxxxxxxxx |            0 |            0 |            0 |xxxxxxxxxxxxx |xxxxxxxxxxxxx |xxxxxxxxxxxxx |xxxxxxxxxxxxx |            0 |            0 |            0 |xxxxxxxxxxxxx |xxxxxxxxxxxxx |xxxxxxxxxxxxx |xxxxxxxxxxxxx |            0 |            0 |            0 |xxxxxxxxxxxxx |xxxxxxxxxxxxx |xxxxxxxxxxxxx |xxxxxxxxxxxxx |            1 |            1 |            1 |xxxxxxxxxxxxx |xxxxxxxxxxxxx |xxxxxxxxxxxxx |xxxxxxxxxxxxx |            1 |            1 |            1 |
bpred_bimod.bpred_addr_rate                 0.7328 |       0.7328 |       0.7328 |xxxxxxxxxxxxx |xxxxxxxxxxxxx |xxxxxxxxxxxxx |xxxxxxxxxxxxx |       0.7071 |       0.7071 |       0.7071 |xxxxxxxxxxxxx |xxxxxxxxxxxxx |xxxxxxxxxxxxx |xxxxxxxxxxxxx |       0.7174 |       0.7174 |       0.7174 |xxxxxxxxxxxxx |xxxxxxxxxxxxx |xxxxxxxxxxxxx |xxxxxxxxxxxxx |       0.7160 |       0.7160 |       0.7160 |xxxxxxxxxxxxx |xxxxxxxxxxxxx |xxxxxxxxxxxxx |xxxxxxxxxxxxx |       0.7219 |       0.7219 |       0.7219 |xxxxxxxxxxxxx |xxxxxxxxxxxxx |xxxxxxxxxxxxx |xxxxxxxxxxxxx |       0.7224 |       0.7224 |       0.7224 |xxxxxxxxxxxxx |xxxxxxxxxxxxx |xxxxxxxxxxxxx |xxxxxxxxxxxxx |       0.7245 |       0.7245 |       0.7245 |xxxxxxxxxxxxx |xxxxxxxxxxxxx |xxxxxxxxxxxxx |xxxxxxxxxxxxx |       0.7331 |       0.7331 |       0.7331 |xxxxxxxxxxxxx |xxxxxxxxxxxxx |xxxxxxxxxxxxx |xxxxxxxxxxxxx |       0.7269 |       0.7269 |       0.7269 |xxxxxxxxxxxxx |xxxxxxxxxxxxx |xxxxxxxxxxxxx |xxxxxxxxxxxxx |       0.7496 |       0.7496 |       0.7496 |xxxxxxxxxxxxx |xxxxxxxxxxxxx |xxxxxxxxxxxxx |xxxxxxxxxxxxx |       0.7689 |       0.7689 |       0.7689 |
bpred_bimod.bpred_dir_rate                  0.7342 |       0.7342 |       0.7342 |xxxxxxxxxxxxx |xxxxxxxxxxxxx |xxxxxxxxxxxxx |xxxxxxxxxxxxx |       0.7078 |       0.7078 |       0.7078 |xxxxxxxxxxxxx |xxxxxxxxxxxxx |xxxxxxxxxxxxx |xxxxxxxxxxxxx |       0.7177 |       0.7177 |       0.7177 |xxxxxxxxxxxxx |xxxxxxxxxxxxx |xxxxxxxxxxxxx |xxxxxxxxxxxxx |       0.7161 |       0.7161 |       0.7161 |xxxxxxxxxxxxx |xxxxxxxxxxxxx |xxxxxxxxxxxxx |xxxxxxxxxxxxx |       0.7220 |       0.7220 |       0.7220 |xxxxxxxxxxxxx |xxxxxxxxxxxxx |xxxxxxxxxxxxx |xxxxxxxxxxxxx |       0.7224 |       0.7224 |       0.7224 |xxxxxxxxxxxxx |xxxxxxxxxxxxx |xxxxxxxxxxxxx |xxxxxxxxxxxxx |       0.7245 |       0.7245 |       0.7245 |xxxxxxxxxxxxx |xxxxxxxxxxxxx |xxxxxxxxxxxxx |xxxxxxxxxxxxx |       0.7331 |       0.7331 |       0.7331 |xxxxxxxxxxxxx |xxxxxxxxxxxxx |xxxxxxxxxxxxx |xxxxxxxxxxxxx |       0.7269 |       0.7269 |       0.7269 |xxxxxxxxxxxxx |xxxxxxxxxxxxx |xxxxxxxxxxxxx |xxxxxxxxxxxxx |       0.7496 |       0.7496 |       0.7496 |xxxxxxxxxxxxx |xxxxxxxxxxxxx |xxxxxxxxxxxxx |xxxxxxxxxxxxx |       0.7689 |       0.7689 |       0.7689 |
bpred_bimod.bpred_jr_rate                   1.0000 |       1.0000 |       1.0000 |xxxxxxxxxxxxx |xxxxxxxxxxxxx |xxxxxxxxxxxxx |xxxxxxxxxxxxx |       1.0000 |       1.0000 |       1.0000 |xxxxxxxxxxxxx |xxxxxxxxxxxxx |xxxxxxxxxxxxx |xxxxxxxxxxxxx |       1.0000 |       1.0000 |       1.0000 |xxxxxxxxxxxxx |xxxxxxxxxxxxx |xxxxxxxxxxxxx |xxxxxxxxxxxxx |       1.0000 |       1.0000 |       1.0000 |xxxxxxxxxxxxx |xxxxxxxxxxxxx |xxxxxxxxxxxxx |xxxxxxxxxxxxx |       1.0000 |       1.0000 |       1.0000 |xxxxxxxxxxxxx |xxxxxxxxxxxxx |xxxxxxxxxxxxx |xxxxxxxxxxxxx |       1.0000 |       1.0000 |       1.0000 |xxxxxxxxxxxxx |xxxxxxxxxxxxx |xxxxxxxxxxxxx |xxxxxxxxxxxxx |       1.0000 |       1.0000 |       1.0000 |xxxxxxxxxxxxx |xxxxxxxxxxxxx |xxxxxxxxxxxxx |xxxxxxxxxxxxx |       1.0000 |       1.0000 |       1.0000 |xxxxxxxxxxxxx |xxxxxxxxxxxxx |xxxxxxxxxxxxx |xxxxxxxxxxxxx |       1.0000 |       1.0000 |       1.0000 |xxxxxxxxxxxxx |xxxxxxxxxxxxx |xxxxxxxxxxxxx |xxxxxxxxxxxxx |       0.9910 |       0.9910 |       0.9910 |xxxxxxxxxxxxx |xxxxxxxxxxxxx |xxxxxxxxxxxxx |xxxxxxxxxxxxx |       0.9919 |       0.9919 |       0.9919 |
bpred_bimod.bpred_jr_non_ras_rate.PP       <error: |      <error: |      <error: |xxxxxxxxxxxxx |xxxxxxxxxxxxx |xxxxxxxxxxxxx |xxxxxxxxxxxxx |      <error: |      <error: |      <error: |xxxxxxxxxxxxx |xxxxxxxxxxxxx |xxxxxxxxxxxxx |xxxxxxxxxxxxx |      <error: |      <error: |      <error: |xxxxxxxxxxxxx |xxxxxxxxxxxxx |xxxxxxxxxxxxx |xxxxxxxxxxxxx |      <error: |      <error: |      <error: |xxxxxxxxxxxxx |xxxxxxxxxxxxx |xxxxxxxxxxxxx |xxxxxxxxxxxxx |      <error: |      <error: |      <error: |xxxxxxxxxxxxx |xxxxxxxxxxxxx |xxxxxxxxxxxxx |xxxxxxxxxxxxx |      <error: |      <error: |      <error: |xxxxxxxxxxxxx |xxxxxxxxxxxxx |xxxxxxxxxxxxx |xxxxxxxxxxxxx |      <error: |      <error: |      <error: |xxxxxxxxxxxxx |xxxxxxxxxxxxx |xxxxxxxxxxxxx |xxxxxxxxxxxxx |      <error: |      <error: |      <error: |xxxxxxxxxxxxx |xxxxxxxxxxxxx |xxxxxxxxxxxxx |xxxxxxxxxxxxx |      <error: |      <error: |      <error: |xxxxxxxxxxxxx |xxxxxxxxxxxxx |xxxxxxxxxxxxx |xxxxxxxxxxxxx |       0.0000 |       0.0000 |       0.0000 |xxxxxxxxxxxxx |xxxxxxxxxxxxx |xxxxxxxxxxxxx |xxxxxxxxxxxxx |       0.0000 |       0.0000 |       0.0000 |
bpred_bimod.retstack_pushes                     67 |           67 |           67 |xxxxxxxxxxxxx |xxxxxxxxxxxxx |xxxxxxxxxxxxx |xxxxxxxxxxxxx |           67 |           67 |           67 |xxxxxxxxxxxxx |xxxxxxxxxxxxx |xxxxxxxxxxxxx |xxxxxxxxxxxxx |           67 |           67 |           67 |xxxxxxxxxxxxx |xxxxxxxxxxxxx |xxxxxxxxxxxxx |xxxxxxxxxxxxx |           67 |           67 |           67 |xxxxxxxxxxxxx |xxxxxxxxxxxxx |xxxxxxxxxxxxx |xxxxxxxxxxxxx |           67 |           67 |           67 |xxxxxxxxxxxxx |xxxxxxxxxxxxx |xxxxxxxxxxxxx |xxxxxxxxxxxxx |           67 |           67 |           67 |xxxxxxxxxxxxx |xxxxxxxxxxxxx |xxxxxxxxxxxxx |xxxxxxxxxxxxx |           67 |           67 |           67 |xxxxxxxxxxxxx |xxxxxxxxxxxxx |xxxxxxxxxxxxx |xxxxxxxxxxxxx |           67 |           67 |           67 |xxxxxxxxxxxxx |xxxxxxxxxxxxx |xxxxxxxxxxxxx |xxxxxxxxxxxxx |           67 |           67 |           67 |xxxxxxxxxxxxx |xxxxxxxxxxxxx |xxxxxxxxxxxxx |xxxxxxxxxxxxx |          112 |          112 |          112 |xxxxxxxxxxxxx |xxxxxxxxxxxxx |xxxxxxxxxxxxx |xxxxxxxxxxxxx |          124 |          124 |          124 |
bpred_bimod.retstack_pops                       65 |           65 |           65 |xxxxxxxxxxxxx |xxxxxxxxxxxxx |xxxxxxxxxxxxx |xxxxxxxxxxxxx |           65 |           65 |           65 |xxxxxxxxxxxxx |xxxxxxxxxxxxx |xxxxxxxxxxxxx |xxxxxxxxxxxxx |           65 |           65 |           65 |xxxxxxxxxxxxx |xxxxxxxxxxxxx |xxxxxxxxxxxxx |xxxxxxxxxxxxx |           65 |           65 |           65 |xxxxxxxxxxxxx |xxxxxxxxxxxxx |xxxxxxxxxxxxx |xxxxxxxxxxxxx |           65 |           65 |           65 |xxxxxxxxxxxxx |xxxxxxxxxxxxx |xxxxxxxxxxxxx |xxxxxxxxxxxxx |           65 |           65 |           65 |xxxxxxxxxxxxx |xxxxxxxxxxxxx |xxxxxxxxxxxxx |xxxxxxxxxxxxx |           65 |           65 |           65 |xxxxxxxxxxxxx |xxxxxxxxxxxxx |xxxxxxxxxxxxx |xxxxxxxxxxxxx |           65 |           65 |           65 |xxxxxxxxxxxxx |xxxxxxxxxxxxx |xxxxxxxxxxxxx |xxxxxxxxxxxxx |           65 |           65 |           65 |xxxxxxxxxxxxx |xxxxxxxxxxxxx |xxxxxxxxxxxxx |xxxxxxxxxxxxx |          110 |          110 |          110 |xxxxxxxxxxxxx |xxxxxxxxxxxxx |xxxxxxxxxxxxx |xxxxxxxxxxxxx |          122 |          122 |          122 |
bpred_bimod.used_ras.PP                         65 |           65 |           65 |xxxxxxxxxxxxx |xxxxxxxxxxxxx |xxxxxxxxxxxxx |xxxxxxxxxxxxx |           65 |           65 |           65 |xxxxxxxxxxxxx |xxxxxxxxxxxxx |xxxxxxxxxxxxx |xxxxxxxxxxxxx |           65 |           65 |           65 |xxxxxxxxxxxxx |xxxxxxxxxxxxx |xxxxxxxxxxxxx |xxxxxxxxxxxxx |           65 |           65 |           65 |xxxxxxxxxxxxx |xxxxxxxxxxxxx |xxxxxxxxxxxxx |xxxxxxxxxxxxx |           65 |           65 |           65 |xxxxxxxxxxxxx |xxxxxxxxxxxxx |xxxxxxxxxxxxx |xxxxxxxxxxxxx |           65 |           65 |           65 |xxxxxxxxxxxxx |xxxxxxxxxxxxx |xxxxxxxxxxxxx |xxxxxxxxxxxxx |           65 |           65 |           65 |xxxxxxxxxxxxx |xxxxxxxxxxxxx |xxxxxxxxxxxxx |xxxxxxxxxxxxx |           65 |           65 |           65 |xxxxxxxxxxxxx |xxxxxxxxxxxxx |xxxxxxxxxxxxx |xxxxxxxxxxxxx |           65 |           65 |           65 |xxxxxxxxxxxxx |xxxxxxxxxxxxx |xxxxxxxxxxxxx |xxxxxxxxxxxxx |          110 |          110 |          110 |xxxxxxxxxxxxx |xxxxxxxxxxxxx |xxxxxxxxxxxxx |xxxxxxxxxxxxx |          122 |          122 |          122 |
bpred_bimod.ras_hits.PP                         65 |           65 |           65 |xxxxxxxxxxxxx |xxxxxxxxxxxxx |xxxxxxxxxxxxx |xxxxxxxxxxxxx |           65 |           65 |           65 |xxxxxxxxxxxxx |xxxxxxxxxxxxx |xxxxxxxxxxxxx |xxxxxxxxxxxxx |           65 |           65 |           65 |xxxxxxxxxxxxx |xxxxxxxxxxxxx |xxxxxxxxxxxxx |xxxxxxxxxxxxx |           65 |           65 |           65 |xxxxxxxxxxxxx |xxxxxxxxxxxxx |xxxxxxxxxxxxx |xxxxxxxxxxxxx |           65 |           65 |           65 |xxxxxxxxxxxxx |xxxxxxxxxxxxx |xxxxxxxxxxxxx |xxxxxxxxxxxxx |           65 |           65 |           65 |xxxxxxxxxxxxx |xxxxxxxxxxxxx |xxxxxxxxxxxxx |xxxxxxxxxxxxx |           65 |           65 |           65 |xxxxxxxxxxxxx |xxxxxxxxxxxxx |xxxxxxxxxxxxx |xxxxxxxxxxxxx |           65 |           65 |           65 |xxxxxxxxxxxxx |xxxxxxxxxxxxx |xxxxxxxxxxxxx |xxxxxxxxxxxxx |           65 |           65 |           65 |xxxxxxxxxxxxx |xxxxxxxxxxxxx |xxxxxxxxxxxxx |xxxxxxxxxxxxx |          110 |          110 |          110 |xxxxxxxxxxxxx |xxxxxxxxxxxxx |xxxxxxxxxxxxx |xxxxxxxxxxxxx |          122 |          122 |          122 |
bpred_bimod.ras_rate.PP                     1.0000 |       1.0000 |       1.0000 |xxxxxxxxxxxxx |xxxxxxxxxxxxx |xxxxxxxxxxxxx |xxxxxxxxxxxxx |       1.0000 |       1.0000 |       1.0000 |xxxxxxxxxxxxx |xxxxxxxxxxxxx |xxxxxxxxxxxxx |xxxxxxxxxxxxx |       1.0000 |       1.0000 |       1.0000 |xxxxxxxxxxxxx |xxxxxxxxxxxxx |xxxxxxxxxxxxx |xxxxxxxxxxxxx |       1.0000 |       1.0000 |       1.0000 |xxxxxxxxxxxxx |xxxxxxxxxxxxx |xxxxxxxxxxxxx |xxxxxxxxxxxxx |       1.0000 |       1.0000 |       1.0000 |xxxxxxxxxxxxx |xxxxxxxxxxxxx |xxxxxxxxxxxxx |xxxxxxxxxxxxx |       1.0000 |       1.0000 |       1.0000 |xxxxxxxxxxxxx |xxxxxxxxxxxxx |xxxxxxxxxxxxx |xxxxxxxxxxxxx |       1.0000 |       1.0000 |       1.0000 |xxxxxxxxxxxxx |xxxxxxxxxxxxx |xxxxxxxxxxxxx |xxxxxxxxxxxxx |       1.0000 |       1.0000 |       1.0000 |xxxxxxxxxxxxx |xxxxxxxxxxxxx |xxxxxxxxxxxxx |xxxxxxxxxxxxx |       1.0000 |       1.0000 |       1.0000 |xxxxxxxxxxxxx |xxxxxxxxxxxxx |xxxxxxxxxxxxx |xxxxxxxxxxxxx |       1.0000 |       1.0000 |       1.0000 |xxxxxxxxxxxxx |xxxxxxxxxxxxx |xxxxxxxxxxxxx |xxxxxxxxxxxxx |       1.0000 |       1.0000 |       1.0000 |
bpred_2lev.lookups                   xxxxxxxxxxxxx |xxxxxxxxxxxxx |xxxxxxxxxxxxx |        78856 |        78856 |        78856 |        78856 |xxxxxxxxxxxxx |xxxxxxxxxxxxx |xxxxxxxxxxxxx |       162081 |       162081 |       162081 |       162081 |xxxxxxxxxxxxx |xxxxxxxxxxxxx |xxxxxxxxxxxxx |       353631 |       353631 |       353631 |       353631 |xxxxxxxxxxxxx |xxxxxxxxxxxxx |xxxxxxxxxxxxx |       759900 |       759900 |       759900 |       759900 |xxxxxxxxxxxxx |xxxxxxxxxxxxx |xxxxxxxxxxxxx |      1635306 |      1635306 |      1635306 |      1635306 |xxxxxxxxxxxxx |xxxxxxxxxxxxx |xxxxxxxxxxxxx |      3473466 |      3473466 |      3473466 |      3473466 |xxxxxxxxxxxxx |xxxxxxxxxxxxx |xxxxxxxxxxxxx |      7426911 |      7426911 |      7426911 |      7426911 |xxxxxxxxxxxxx |xxxxxxxxxxxxx |xxxxxxxxxxxxx |     15944281 |     15944281 |     15944281 |     15944281 |xxxxxxxxxxxxx |xxxxxxxxxxxxx |xxxxxxxxxxxxx |     33262415 |     33262415 |     33262415 |     33262415 |xxxxxxxxxxxxx |xxxxxxxxxxxxx |xxxxxxxxxxxxx |     85631005 |     85631005 |     85631005 |     85631005 |xxxxxxxxxxxxx |xxxxxxxxxxxxx |xxxxxxxxxxxxx |    182320934 |    182320934 |    182320934 |    182320934 |
[...]
bpred_2lev.retstack_pushes           xxxxxxxxxxxxx |xxxxxxxxxxxxx |xxxxxxxxxxxxx |           67 |           67 |           67 |           67 |xxxxxxxxxxxxx |xxxxxxxxxxxxx |xxxxxxxxxxxxx |           67 |           67 |           67 |           67 |xxxxxxxxxxxxx |xxxxxxxxxxxxx |xxxxxxxxxxxxx |           67 |           67 |           67 |           67 |xxxxxxxxxxxxx |xxxxxxxxxxxxx |xxxxxxxxxxxxx |           67 |           67 |           67 |           67 |xxxxxxxxxxxxx |xxxxxxxxxxxxx |xxxxxxxxxxxxx |           67 |           67 |           67 |           67 |xxxxxxxxxxxxx |xxxxxxxxxxxxx |xxxxxxxxxxxxx |           67 |           67 |           67 |           67 |xxxxxxxxxxxxx |xxxxxxxxxxxxx |xxxxxxxxxxxxx |           67 |           67 |           67 |           67 |xxxxxxxxxxxxx |xxxxxxxxxxxxx |xxxxxxxxxxxxx |           67 |           67 |           67 |           67 |xxxxxxxxxxxxx |xxxxxxxxxxxxx |xxxxxxxxxxxxx |           67 |           67 |           67 |           67 |xxxxxxxxxxxxx |xxxxxxxxxxxxx |xxxxxxxxxxxxx |          112 |          112 |          112 |          112 |xxxxxxxxxxxxx |xxxxxxxxxxxxx |xxxxxxxxxxxxx |          124 |          124 |          124 |          124 |
bpred_2lev.retstack_pops             xxxxxxxxxxxxx |xxxxxxxxxxxxx |xxxxxxxxxxxxx |           65 |           65 |           65 |           65 |xxxxxxxxxxxxx |xxxxxxxxxxxxx |xxxxxxxxxxxxx |           65 |           65 |           65 |           65 |xxxxxxxxxxxxx |xxxxxxxxxxxxx |xxxxxxxxxxxxx |           65 |           65 |           65 |           65 |xxxxxxxxxxxxx |xxxxxxxxxxxxx |xxxxxxxxxxxxx |           65 |           65 |           65 |           65 |xxxxxxxxxxxxx |xxxxxxxxxxxxx |xxxxxxxxxxxxx |           65 |           65 |           65 |           65 |xxxxxxxxxxxxx |xxxxxxxxxxxxx |xxxxxxxxxxxxx |           65 |           65 |           65 |           65 |xxxxxxxxxxxxx |xxxxxxxxxxxxx |xxxxxxxxxxxxx |           65 |           65 |           65 |           65 |xxxxxxxxxxxxx |xxxxxxxxxxxxx |xxxxxxxxxxxxx |           65 |           65 |           65 |           65 |xxxxxxxxxxxxx |xxxxxxxxxxxxx |xxxxxxxxxxxxx |           65 |           65 |           65 |           65 |xxxxxxxxxxxxx |xxxxxxxxxxxxx |xxxxxxxxxxxxx |          110 |          110 |          110 |          110 |xxxxxxxxxxxxx |xxxxxxxxxxxxx |xxxxxxxxxxxxx |          122 |          122 |          122 |          122 |
bpred_2lev.used_ras.PP               xxxxxxxxxxxxx |xxxxxxxxxxxxx |xxxxxxxxxxxxx |           65 |           65 |           65 |           65 |xxxxxxxxxxxxx |xxxxxxxxxxxxx |xxxxxxxxxxxxx |           65 |           65 |           65 |           65 |xxxxxxxxxxxxx |xxxxxxxxxxxxx |xxxxxxxxxxxxx |           65 |           65 |           65 |           65 |xxxxxxxxxxxxx |xxxxxxxxxxxxx |xxxxxxxxxxxxx |           65 |           65 |           65 |           65 |xxxxxxxxxxxxx |xxxxxxxxxxxxx |xxxxxxxxxxxxx |           65 |           65 |           65 |           65 |xxxxxxxxxxxxx |xxxxxxxxxxxxx |xxxxxxxxxxxxx |           65 |           65 |           65 |           65 |xxxxxxxxxxxxx |xxxxxxxxxxxxx |xxxxxxxxxxxxx |           65 |           65 |           65 |           65 |xxxxxxxxxxxxx |xxxxxxxxxxxxx |xxxxxxxxxxxxx |           65 |           65 |           65 |           65 |xxxxxxxxxxxxx |xxxxxxxxxxxxx |xxxxxxxxxxxxx |           65 |           65 |           65 |           65 |xxxxxxxxxxxxx |xxxxxxxxxxxxx |xxxxxxxxxxxxx |          110 |          110 |          110 |          110 |xxxxxxxxxxxxx |xxxxxxxxxxxxx |xxxxxxxxxxxxx |          122 |          122 |          122 |          122 |
bpred_2lev.ras_hits.PP               xxxxxxxxxxxxx |xxxxxxxxxxxxx |xxxxxxxxxxxxx |           65 |           65 |           65 |           65 |xxxxxxxxxxxxx |xxxxxxxxxxxxx |xxxxxxxxxxxxx |           65 |           65 |           65 |           65 |xxxxxxxxxxxxx |xxxxxxxxxxxxx |xxxxxxxxxxxxx |           65 |           65 |           65 |           65 |xxxxxxxxxxxxx |xxxxxxxxxxxxx |xxxxxxxxxxxxx |           65 |           65 |           65 |           65 |xxxxxxxxxxxxx |xxxxxxxxxxxxx |xxxxxxxxxxxxx |           65 |           65 |           65 |           65 |xxxxxxxxxxxxx |xxxxxxxxxxxxx |xxxxxxxxxxxxx |           65 |           65 |           65 |           65 |xxxxxxxxxxxxx |xxxxxxxxxxxxx |xxxxxxxxxxxxx |           65 |           65 |           65 |           65 |xxxxxxxxxxxxx |xxxxxxxxxxxxx |xxxxxxxxxxxxx |           65 |           65 |           65 |           65 |xxxxxxxxxxxxx |xxxxxxxxxxxxx |xxxxxxxxxxxxx |           65 |           65 |           65 |           65 |xxxxxxxxxxxxx |xxxxxxxxxxxxx |xxxxxxxxxxxxx |          110 |          110 |          110 |          110 |xxxxxxxxxxxxx |xxxxxxxxxxxxx |xxxxxxxxxxxxx |          122 |          122 |          122 |          122 |
bpred_2lev.ras_rate.PP               xxxxxxxxxxxxx |xxxxxxxxxxxxx |xxxxxxxxxxxxx |       1.0000 |       1.0000 |       1.0000 |       1.0000 |xxxxxxxxxxxxx |xxxxxxxxxxxxx |xxxxxxxxxxxxx |       1.0000 |       1.0000 |       1.0000 |       1.0000 |xxxxxxxxxxxxx |xxxxxxxxxxxxx |xxxxxxxxxxxxx |       1.0000 |       1.0000 |       1.0000 |       1.0000 |xxxxxxxxxxxxx |xxxxxxxxxxxxx |xxxxxxxxxxxxx |       1.0000 |       1.0000 |       1.0000 |       1.0000 |xxxxxxxxxxxxx |xxxxxxxxxxxxx |xxxxxxxxxxxxx |       1.0000 |       1.0000 |       1.0000 |       1.0000 |xxxxxxxxxxxxx |xxxxxxxxxxxxx |xxxxxxxxxxxxx |       1.0000 |       1.0000 |       1.0000 |       1.0000 |xxxxxxxxxxxxx |xxxxxxxxxxxxx |xxxxxxxxxxxxx |       1.0000 |       1.0000 |       1.0000 |       1.0000 |xxxxxxxxxxxxx |xxxxxxxxxxxxx |xxxxxxxxxxxxx |       1.0000 |       1.0000 |       1.0000 |       1.0000 |xxxxxxxxxxxxx |xxxxxxxxxxxxx |xxxxxxxxxxxxx |       1.0000 |       1.0000 |       1.0000 |       1.0000 |xxxxxxxxxxxxx |xxxxxxxxxxxxx |xxxxxxxxxxxxx |       1.0000 |       1.0000 |       1.0000 |       1.0000 |xxxxxxxxxxxxx |xxxxxxxxxxxxx |xxxxxxxxxxxxx |       1.0000 |       1.0000 |       1.0000 |       1.0000 |

Command list: 
	sslittle-na-sstrix-gcc -Wall -O3 -funroll-loops -finline-functions  -DRANDOM_SIZE=4096 -DOFFSET=4 -DSORT=multi_quicksort sorts/multi_quicksort84129778.c simpleMain.c -o multi_quicksort1177459499
	sim-cache -cache:dl1 dl1:256:32:1:l -cache:dl2 dl2:131072:32:1:l -cache:il1 il1:256:32:1:l -cache:il2 dl2 multi_quicksort1177459499
	sim-cache -cache:dl1 dl1:256:32:1:l -cache:dl2 dl2:65536:32:1:l -cache:il1 il1:256:32:1:l -cache:il2 dl2 multi_quicksort1177459499
	sim-cache -cache:dl1 dl1:1:32:256:l -cache:dl2 dl2:1:32:131072:l -cache:il1 il1:1:32:256:l -cache:il2 dl2 multi_quicksort1177459499
	sim-cache -cache:dl1 dl1:1:32:256:l -cache:dl2 dl2:1:32:65536:l -cache:il1 il1:1:32:256:l -cache:il2 dl2 multi_quicksort1177459499
	sim-bpred -bpred bimod -bpred:bimod 512 multi_quicksort1177459499
	sim-bpred -bpred bimod -bpred:bimod 1024 multi_quicksort1177459499
	sim-bpred -bpred bimod -bpred:bimod 2048 multi_quicksort1177459499
	sim-bpred -bpred 2lev -bpred:2lev 1 512 10 1 multi_quicksort1177459499
	sim-bpred -bpred 2lev -bpred:2lev 1 1024 10 1 multi_quicksort1177459499
	sim-bpred -bpred 2lev -bpred:2lev 1 2048 10 1 multi_quicksort1177459499
	sim-bpred -bpred 2lev -bpred:2lev 1 4096 10 1 multi_quicksort1177459499
	sslittle-na-sstrix-gcc -Wall -O3 -funroll-loops -finline-functions  -DRANDOM_SIZE=8192 -DOFFSET=4 -DSORT=multi_quicksort sorts/multi_quicksort84129778.c simpleMain.c -o multi_quicksort1177459499
	sim-cache -cache:dl1 dl1:256:32:1:l -cache:dl2 dl2:131072:32:1:l -cache:il1 il1:256:32:1:l -cache:il2 dl2 multi_quicksort1177459499
	sim-cache -cache:dl1 dl1:256:32:1:l -cache:dl2 dl2:65536:32:1:l -cache:il1 il1:256:32:1:l -cache:il2 dl2 multi_quicksort1177459499
	sim-cache -cache:dl1 dl1:1:32:256:l -cache:dl2 dl2:1:32:131072:l -cache:il1 il1:1:32:256:l -cache:il2 dl2 multi_quicksort1177459499
	sim-cache -cache:dl1 dl1:1:32:256:l -cache:dl2 dl2:1:32:65536:l -cache:il1 il1:1:32:256:l -cache:il2 dl2 multi_quicksort1177459499
	sim-bpred -bpred bimod -bpred:bimod 512 multi_quicksort1177459499
	sim-bpred -bpred bimod -bpred:bimod 1024 multi_quicksort1177459499
	sim-bpred -bpred bimod -bpred:bimod 2048 multi_quicksort1177459499
	sim-bpred -bpred 2lev -bpred:2lev 1 512 10 1 multi_quicksort1177459499
	sim-bpred -bpred 2lev -bpred:2lev 1 1024 10 1 multi_quicksort1177459499
	sim-bpred -bpred 2lev -bpred:2lev 1 2048 10 1 multi_quicksort1177459499
	sim-bpred -bpred 2lev -bpred:2lev 1 4096 10 1 multi_quicksort1177459499
	sslittle-na-sstrix-gcc -Wall -O3 -funroll-loops -finline-functions  -DRANDOM_SIZE=16384 -DOFFSET=4 -DSORT=multi_quicksort sorts/multi_quicksort84129778.c simpleMain.c -o multi_quicksort1177459499
	sim-cache -cache:dl1 dl1:256:32:1:l -cache:dl2 dl2:131072:32:1:l -cache:il1 il1:256:32:1:l -cache:il2 dl2 multi_quicksort1177459499
	sim-cache -cache:dl1 dl1:256:32:1:l -cache:dl2 dl2:65536:32:1:l -cache:il1 il1:256:32:1:l -cache:il2 dl2 multi_quicksort1177459499
	sim-cache -cache:dl1 dl1:1:32:256:l -cache:dl2 dl2:1:32:131072:l -cache:il1 il1:1:32:256:l -cache:il2 dl2 multi_quicksort1177459499
	sim-cache -cache:dl1 dl1:1:32:256:l -cache:dl2 dl2:1:32:65536:l -cache:il1 il1:1:32:256:l -cache:il2 dl2 multi_quicksort1177459499
	sim-bpred -bpred bimod -bpred:bimod 512 multi_quicksort1177459499
	sim-bpred -bpred bimod -bpred:bimod 1024 multi_quicksort1177459499
	sim-bpred -bpred bimod -bpred:bimod 2048 multi_quicksort1177459499
	sim-bpred -bpred 2lev -bpred:2lev 1 512 10 1 multi_quicksort1177459499
	sim-bpred -bpred 2lev -bpred:2lev 1 1024 10 1 multi_quicksort1177459499
	sim-bpred -bpred 2lev -bpred:2lev 1 2048 10 1 multi_quicksort1177459499
	sim-bpred -bpred 2lev -bpred:2lev 1 4096 10 1 multi_quicksort1177459499
	sslittle-na-sstrix-gcc -Wall -O3 -funroll-loops -finline-functions  -DRANDOM_SIZE=32768 -DOFFSET=4 -DSORT=multi_quicksort sorts/multi_quicksort84129778.c simpleMain.c -o multi_quicksort1177459499
	sim-cache -cache:dl1 dl1:256:32:1:l -cache:dl2 dl2:131072:32:1:l -cache:il1 il1:256:32:1:l -cache:il2 dl2 multi_quicksort1177459499
	sim-cache -cache:dl1 dl1:256:32:1:l -cache:dl2 dl2:65536:32:1:l -cache:il1 il1:256:32:1:l -cache:il2 dl2 multi_quicksort1177459499
	sim-cache -cache:dl1 dl1:1:32:256:l -cache:dl2 dl2:1:32:131072:l -cache:il1 il1:1:32:256:l -cache:il2 dl2 multi_quicksort1177459499
	sim-cache -cache:dl1 dl1:1:32:256:l -cache:dl2 dl2:1:32:65536:l -cache:il1 il1:1:32:256:l -cache:il2 dl2 multi_quicksort1177459499
	sim-bpred -bpred bimod -bpred:bimod 512 multi_quicksort1177459499
	sim-bpred -bpred bimod -bpred:bimod 1024 multi_quicksort1177459499
	sim-bpred -bpred bimod -bpred:bimod 2048 multi_quicksort1177459499
	sim-bpred -bpred 2lev -bpred:2lev 1 512 10 1 multi_quicksort1177459499
	sim-bpred -bpred 2lev -bpred:2lev 1 1024 10 1 multi_quicksort1177459499
	sim-bpred -bpred 2lev -bpred:2lev 1 2048 10 1 multi_quicksort1177459499
	sim-bpred -bpred 2lev -bpred:2lev 1 4096 10 1 multi_quicksort1177459499
	sslittle-na-sstrix-gcc -Wall -O3 -funroll-loops -finline-functions  -DRANDOM_SIZE=65536 -DOFFSET=4 -DSORT=multi_quicksort sorts/multi_quicksort84129778.c simpleMain.c -o multi_quicksort1177459499
	sim-cache -cache:dl1 dl1:256:32:1:l -cache:dl2 dl2:131072:32:1:l -cache:il1 il1:256:32:1:l -cache:il2 dl2 multi_quicksort1177459499
	sim-cache -cache:dl1 dl1:256:32:1:l -cache:dl2 dl2:65536:32:1:l -cache:il1 il1:256:32:1:l -cache:il2 dl2 multi_quicksort1177459499
	sim-cache -cache:dl1 dl1:1:32:256:l -cache:dl2 dl2:1:32:131072:l -cache:il1 il1:1:32:256:l -cache:il2 dl2 multi_quicksort1177459499
	sim-cache -cache:dl1 dl1:1:32:256:l -cache:dl2 dl2:1:32:65536:l -cache:il1 il1:1:32:256:l -cache:il2 dl2 multi_quicksort1177459499
	sim-bpred -bpred bimod -bpred:bimod 512 multi_quicksort1177459499
	sim-bpred -bpred bimod -bpred:bimod 1024 multi_quicksort1177459499
	sim-bpred -bpred bimod -bpred:bimod 2048 multi_quicksort1177459499
	sim-bpred -bpred 2lev -bpred:2lev 1 512 10 1 multi_quicksort1177459499
	sim-bpred -bpred 2lev -bpred:2lev 1 1024 10 1 multi_quicksort1177459499
	sim-bpred -bpred 2lev -bpred:2lev 1 2048 10 1 multi_quicksort1177459499
	sim-bpred -bpred 2lev -bpred:2lev 1 4096 10 1 multi_quicksort1177459499
	sslittle-na-sstrix-gcc -Wall -O3 -funroll-loops -finline-functions  -DRANDOM_SIZE=131072 -DOFFSET=4 -DSORT=multi_quicksort sorts/multi_quicksort84129778.c simpleMain.c -o multi_quicksort1177459499
	sim-cache -cache:dl1 dl1:256:32:1:l -cache:dl2 dl2:131072:32:1:l -cache:il1 il1:256:32:1:l -cache:il2 dl2 multi_quicksort1177459499
	sim-cache -cache:dl1 dl1:256:32:1:l -cache:dl2 dl2:65536:32:1:l -cache:il1 il1:256:32:1:l -cache:il2 dl2 multi_quicksort1177459499
	sim-cache -cache:dl1 dl1:1:32:256:l -cache:dl2 dl2:1:32:131072:l -cache:il1 il1:1:32:256:l -cache:il2 dl2 multi_quicksort1177459499
	sim-cache -cache:dl1 dl1:1:32:256:l -cache:dl2 dl2:1:32:65536:l -cache:il1 il1:1:32:256:l -cache:il2 dl2 multi_quicksort1177459499
	sim-bpred -bpred bimod -bpred:bimod 512 multi_quicksort1177459499
	sim-bpred -bpred bimod -bpred:bimod 1024 multi_quicksort1177459499
	sim-bpred -bpred bimod -bpred:bimod 2048 multi_quicksort1177459499
	sim-bpred -bpred 2lev -bpred:2lev 1 512 10 1 multi_quicksort1177459499
	sim-bpred -bpred 2lev -bpred:2lev 1 1024 10 1 multi_quicksort1177459499
	sim-bpred -bpred 2lev -bpred:2lev 1 2048 10 1 multi_quicksort1177459499
	sim-bpred -bpred 2lev -bpred:2lev 1 4096 10 1 multi_quicksort1177459499
	sslittle-na-sstrix-gcc -Wall -O3 -funroll-loops -finline-functions  -DRANDOM_SIZE=262144 -DOFFSET=4 -DSORT=multi_quicksort sorts/multi_quicksort84129778.c simpleMain.c -o multi_quicksort1177459499
	sim-cache -cache:dl1 dl1:256:32:1:l -cache:dl2 dl2:131072:32:1:l -cache:il1 il1:256:32:1:l -cache:il2 dl2 multi_quicksort1177459499
	sim-cache -cache:dl1 dl1:256:32:1:l -cache:dl2 dl2:65536:32:1:l -cache:il1 il1:256:32:1:l -cache:il2 dl2 multi_quicksort1177459499
	sim-cache -cache:dl1 dl1:1:32:256:l -cache:dl2 dl2:1:32:131072:l -cache:il1 il1:1:32:256:l -cache:il2 dl2 multi_quicksort1177459499
	sim-cache -cache:dl1 dl1:1:32:256:l -cache:dl2 dl2:1:32:65536:l -cache:il1 il1:1:32:256:l -cache:il2 dl2 multi_quicksort1177459499
	sim-bpred -bpred bimod -bpred:bimod 512 multi_quicksort1177459499
	sim-bpred -bpred bimod -bpred:bimod 1024 multi_quicksort1177459499
	sim-bpred -bpred bimod -bpred:bimod 2048 multi_quicksort1177459499
	sim-bpred -bpred 2lev -bpred:2lev 1 512 10 1 multi_quicksort1177459499
	sim-bpred -bpred 2lev -bpred:2lev 1 1024 10 1 multi_quicksort1177459499
	sim-bpred -bpred 2lev -bpred:2lev 1 2048 10 1 multi_quicksort1177459499
	sim-bpred -bpred 2lev -bpred:2lev 1 4096 10 1 multi_quicksort1177459499
	sslittle-na-sstrix-gcc -Wall -O3 -funroll-loops -finline-functions  -DRANDOM_SIZE=524288 -DOFFSET=4 -DSORT=multi_quicksort sorts/multi_quicksort84129778.c simpleMain.c -o multi_quicksort1177459499
	sim-cache -cache:dl1 dl1:256:32:1:l -cache:dl2 dl2:131072:32:1:l -cache:il1 il1:256:32:1:l -cache:il2 dl2 multi_quicksort1177459499
	sim-cache -cache:dl1 dl1:256:32:1:l -cache:dl2 dl2:65536:32:1:l -cache:il1 il1:256:32:1:l -cache:il2 dl2 multi_quicksort1177459499
	sim-cache -cache:dl1 dl1:1:32:256:l -cache:dl2 dl2:1:32:131072:l -cache:il1 il1:1:32:256:l -cache:il2 dl2 multi_quicksort1177459499
	sim-cache -cache:dl1 dl1:1:32:256:l -cache:dl2 dl2:1:32:65536:l -cache:il1 il1:1:32:256:l -cache:il2 dl2 multi_quicksort1177459499
	sim-bpred -bpred bimod -bpred:bimod 512 multi_quicksort1177459499
	sim-bpred -bpred bimod -bpred:bimod 1024 multi_quicksort1177459499
	sim-bpred -bpred bimod -bpred:bimod 2048 multi_quicksort1177459499
	sim-bpred -bpred 2lev -bpred:2lev 1 512 10 1 multi_quicksort1177459499
	sim-bpred -bpred 2lev -bpred:2lev 1 1024 10 1 multi_quicksort1177459499
	sim-bpred -bpred 2lev -bpred:2lev 1 2048 10 1 multi_quicksort1177459499
	sim-bpred -bpred 2lev -bpred:2lev 1 4096 10 1 multi_quicksort1177459499
	sslittle-na-sstrix-gcc -Wall -O3 -funroll-loops -finline-functions  -DRANDOM_SIZE=1048576 -DOFFSET=4 -DSORT=multi_quicksort sorts/multi_quicksort84129778.c simpleMain.c -o multi_quicksort1177459499
	sim-cache -cache:dl1 dl1:256:32:1:l -cache:dl2 dl2:131072:32:1:l -cache:il1 il1:256:32:1:l -cache:il2 dl2 multi_quicksort1177459499
	sim-cache -cache:dl1 dl1:256:32:1:l -cache:dl2 dl2:65536:32:1:l -cache:il1 il1:256:32:1:l -cache:il2 dl2 multi_quicksort1177459499
	sim-cache -cache:dl1 dl1:1:32:256:l -cache:dl2 dl2:1:32:131072:l -cache:il1 il1:1:32:256:l -cache:il2 dl2 multi_quicksort1177459499
	sim-cache -cache:dl1 dl1:1:32:256:l -cache:dl2 dl2:1:32:65536:l -cache:il1 il1:1:32:256:l -cache:il2 dl2 multi_quicksort1177459499
	sim-bpred -bpred bimod -bpred:bimod 512 multi_quicksort1177459499
	sim-bpred -bpred bimod -bpred:bimod 1024 multi_quicksort1177459499
	sim-bpred -bpred bimod -bpred:bimod 2048 multi_quicksort1177459499
	sim-bpred -bpred 2lev -bpred:2lev 1 512 10 1 multi_quicksort1177459499
	sim-bpred -bpred 2lev -bpred:2lev 1 1024 10 1 multi_quicksort1177459499
	sim-bpred -bpred 2lev -bpred:2lev 1 2048 10 1 multi_quicksort1177459499
	sim-bpred -bpred 2lev -bpred:2lev 1 4096 10 1 multi_quicksort1177459499
	sslittle-na-sstrix-gcc -Wall -O3 -funroll-loops -finline-functions  -DRANDOM_SIZE=2097152 -DOFFSET=4 -DSORT=multi_quicksort sorts/multi_quicksort84129778.c simpleMain.c -o multi_quicksort1177459499
	sim-cache -cache:dl1 dl1:256:32:1:l -cache:dl2 dl2:131072:32:1:l -cache:il1 il1:256:32:1:l -cache:il2 dl2 multi_quicksort1177459499
	sim-cache -cache:dl1 dl1:256:32:1:l -cache:dl2 dl2:65536:32:1:l -cache:il1 il1:256:32:1:l -cache:il2 dl2 multi_quicksort1177459499
	sim-cache -cache:dl1 dl1:1:32:256:l -cache:dl2 dl2:1:32:131072:l -cache:il1 il1:1:32:256:l -cache:il2 dl2 multi_quicksort1177459499
	sim-cache -cache:dl1 dl1:1:32:256:l -cache:dl2 dl2:1:32:65536:l -cache:il1 il1:1:32:256:l -cache:il2 dl2 multi_quicksort1177459499
	sim-bpred -bpred bimod -bpred:bimod 512 multi_quicksort1177459499
	sim-bpred -bpred bimod -bpred:bimod 1024 multi_quicksort1177459499
	sim-bpred -bpred bimod -bpred:bimod 2048 multi_quicksort1177459499
	sim-bpred -bpred 2lev -bpred:2lev 1 512 10 1 multi_quicksort1177459499
	sim-bpred -bpred 2lev -bpred:2lev 1 1024 10 1 multi_quicksort1177459499
	sim-bpred -bpred 2lev -bpred:2lev 1 2048 10 1 multi_quicksort1177459499
	sim-bpred -bpred 2lev -bpred:2lev 1 4096 10 1 multi_quicksort1177459499
	sslittle-na-sstrix-gcc -Wall -O3 -funroll-loops -finline-functions  -DRANDOM_SIZE=4194304 -DOFFSET=4 -DSORT=multi_quicksort sorts/multi_quicksort84129778.c simpleMain.c -o multi_quicksort1177459499
	sim-cache -cache:dl1 dl1:256:32:1:l -cache:dl2 dl2:131072:32:1:l -cache:il1 il1:256:32:1:l -cache:il2 dl2 multi_quicksort1177459499
	sim-cache -cache:dl1 dl1:256:32:1:l -cache:dl2 dl2:65536:32:1:l -cache:il1 il1:256:32:1:l -cache:il2 dl2 multi_quicksort1177459499
	sim-cache -cache:dl1 dl1:1:32:256:l -cache:dl2 dl2:1:32:131072:l -cache:il1 il1:1:32:256:l -cache:il2 dl2 multi_quicksort1177459499
	sim-cache -cache:dl1 dl1:1:32:256:l -cache:dl2 dl2:1:32:65536:l -cache:il1 il1:1:32:256:l -cache:il2 dl2 multi_quicksort1177459499
	sim-bpred -bpred bimod -bpred:bimod 512 multi_quicksort1177459499
	sim-bpred -bpred bimod -bpred:bimod 1024 multi_quicksort1177459499
	sim-bpred -bpred bimod -bpred:bimod 2048 multi_quicksort1177459499
	sim-bpred -bpred 2lev -bpred:2lev 1 512 10 1 multi_quicksort1177459499
	sim-bpred -bpred 2lev -bpred:2lev 1 1024 10 1 multi_quicksort1177459499
	sim-bpred -bpred 2lev -bpred:2lev 1 2048 10 1 multi_quicksort1177459499
	sim-bpred -bpred 2lev -bpred:2lev 1 4096 10 1 multi_quicksort1177459499
