Fri Aug  5 06:16:43 2005
Run as: "./do_simple -c random.org9 -o 9 multi_quicksort"
-------------------------------------------------------------------------------------------------
sim-cache                                     4096 |         4096 |         4096 |         4096 |         8192 |         8192 |         8192 |         8192 |        16384 |        16384 |        16384 |        16384 |        32768 |        32768 |        32768 |        32768 |        65536 |        65536 |        65536 |        65536 |       131072 |       131072 |       131072 |       131072 |       262144 |       262144 |       262144 |       262144 |       524288 |       524288 |       524288 |       524288 |      1048576 |      1048576 |      1048576 |      1048576 |      2097152 |      2097152 |      2097152 |      2097152 |      4194304 |      4194304 |      4194304 |      4194304 |
-cache:dl1 dl1:256:32:1:l -cache:dl2 dl2:131072:32:1:l -cache:il1 il1:256:32:1:l -cache:il2 dl2
-cache:dl1 dl1:256:32:1:l -cache:dl2 dl2:65536:32:1:l -cache:il1 il1:256:32:1:l -cache:il2 dl2
-cache:dl1 dl1:1:32:256:l -cache:dl2 dl2:1:32:131072:l -cache:il1 il1:1:32:256:l -cache:il2 dl2
-cache:dl1 dl1:1:32:256:l -cache:dl2 dl2:1:32:65536:l -cache:il1 il1:1:32:256:l -cache:il2 dl2
-------------------------------------------------------------------------------------------------
sim_num_insn                                467099 |       467099 |       467099 |       467099 |       985432 |       985432 |       985432 |       985432 |      2107993 |      2107993 |      2107993 |      2107993 |      4574005 |      4574005 |      4574005 |      4574005 |      9767553 |      9767553 |      9767553 |      9767553 |     20707663 |     20707663 |     20707663 |     20707663 |     43650983 |     43650983 |     43650983 |     43650983 |     95784101 |     95784101 |     95784101 |     95784101 |    196105849 |    196105849 |    196105849 |    196105849 |    527292490 |    527292490 |    527292490 |    527292490 |   1100580240 |   1100580240 |   1100580240 |   1100580240 |
sim_num_refs                                123465 |       123465 |       123465 |       123465 |       258237 |       258237 |       258237 |       258237 |       545292 |       545292 |       545292 |       545292 |      1164626 |      1164626 |      1164626 |      1164626 |      2470123 |      2470123 |      2470123 |      2470123 |      5214072 |      5214072 |      5214072 |      5214072 |     10959430 |     10959430 |     10959430 |     10959430 |     23562289 |     23562289 |     23562289 |     23562289 |     48582159 |     48582159 |     48582159 |     48582159 |    127947686 |    127947686 |    127947686 |    127947686 |    263176154 |    263176154 |    263176154 |    263176154 |
sim_elapsed_time                                 1 |            1 |            8 |            3 |            1 |            1 |           10 |            5 |            1 |            1 |           15 |            8 |            2 |            1 |           26 |           14 |            3 |            3 |           48 |           24 |            6 |            5 |           89 |           45 |           12 |           11 |          164 |           77 |           25 |           25 |          282 |          110 |           52 |           51 |          392 |          138 |          142 |          141 |          487 |          233 |          293 |          292 |          647 |          395 |
sim_inst_rate                          467099.0000 |  467099.0000 |   58387.3750 |  155699.6667 |  985432.0000 |  985432.0000 |   98543.2000 |  197086.4000 | 2107993.0000 | 2107993.0000 |  140532.8667 |  263499.1250 | 2287002.5000 | 4574005.0000 |  175923.2692 |  326714.6429 | 3255851.0000 | 3255851.0000 |  203490.6875 |  406981.3750 | 3451277.1667 | 4141532.6000 |  232670.3708 |  460170.2889 | 3637581.9167 | 3968271.1818 |  266164.5305 |  566895.8831 | 3831364.0400 | 3831364.0400 |  339659.9326 |  870764.5545 | 3771266.3269 | 3845212.7255 |  500270.0230 | 1421056.8768 | 3713327.3944 | 3739663.0496 | 1082736.1191 | 2263057.8970 | 3756246.5529 | 3769110.4110 | 1701051.3756 | 2786279.0886 |
il1.accesses                                467099 |       467099 |       467099 |       467099 |       985432 |       985432 |       985432 |       985432 |      2107993 |      2107993 |      2107993 |      2107993 |      4574005 |      4574005 |      4574005 |      4574005 |      9767553 |      9767553 |      9767553 |      9767553 |     20707663 |     20707663 |     20707663 |     20707663 |     43650983 |     43650983 |     43650983 |     43650983 |     95784101 |     95784101 |     95784101 |     95784101 |    196105849 |    196105849 |    196105849 |    196105849 |    527292490 |    527292490 |    527292490 |    527292490 |   1100580240 |   1100580240 |   1100580240 |   1100580240 |
il1.hits                                    466621 |       466621 |       466660 |       466660 |       984961 |       984961 |       984998 |       984998 |      2107532 |      2107532 |      2107560 |      2107560 |      4573531 |      4573531 |      4573567 |      4573567 |      9767073 |      9767073 |      9767109 |      9767109 |     20707189 |     20707189 |     20707225 |     20707225 |     43650511 |     43650511 |     43650547 |     43650547 |     95783624 |     95783624 |     95783660 |     95783660 |    196105375 |    196105375 |    196105411 |    196105411 |    527291737 |    527291737 |    527291787 |    527291787 |   1100579484 |   1100579484 |   1100579529 |   1100579529 |
il1.misses                                     478 |          478 |          439 |          439 |          471 |          471 |          434 |          434 |          461 |          461 |          433 |          433 |          474 |          474 |          438 |          438 |          480 |          480 |          444 |          444 |          474 |          474 |          438 |          438 |          472 |          472 |          436 |          436 |          477 |          477 |          441 |          441 |          474 |          474 |          438 |          438 |          753 |          753 |          703 |          703 |          756 |          756 |          711 |          711 |
il1.replacements                               237 |          237 |          183 |          183 |          231 |          231 |          178 |          178 |          217 |          217 |          177 |          177 |          231 |          231 |          182 |          182 |          237 |          237 |          188 |          188 |          231 |          231 |          182 |          182 |          229 |          229 |          180 |          180 |          234 |          234 |          185 |          185 |          231 |          231 |          182 |          182 |          497 |          497 |          447 |          447 |          500 |          500 |          455 |          455 |
il1.writebacks                                   0 |            0 |            0 |            0 |            0 |            0 |            0 |            0 |            0 |            0 |            0 |            0 |            0 |            0 |            0 |            0 |            0 |            0 |            0 |            0 |            0 |            0 |            0 |            0 |            0 |            0 |            0 |            0 |            0 |            0 |            0 |            0 |            0 |            0 |            0 |            0 |            0 |            0 |            0 |            0 |            0 |            0 |            0 |            0 |
il1.invalidations                                0 |            0 |            0 |            0 |            0 |            0 |            0 |            0 |            0 |            0 |            0 |            0 |            0 |            0 |            0 |            0 |            0 |            0 |            0 |            0 |            0 |            0 |            0 |            0 |            0 |            0 |            0 |            0 |            0 |            0 |            0 |            0 |            0 |            0 |            0 |            0 |            0 |            0 |            0 |            0 |            0 |            0 |            0 |            0 |
il1.miss_rate                               0.0010 |       0.0010 |       0.0009 |       0.0009 |       0.0005 |       0.0005 |       0.0004 |       0.0004 |       0.0002 |       0.0002 |       0.0002 |       0.0002 |       0.0001 |       0.0001 |       0.0001 |       0.0001 |       0.0000 |       0.0000 |       0.0000 |       0.0000 |       0.0000 |       0.0000 |       0.0000 |       0.0000 |       0.0000 |       0.0000 |       0.0000 |       0.0000 |       0.0000 |       0.0000 |       0.0000 |       0.0000 |       0.0000 |       0.0000 |       0.0000 |       0.0000 |       0.0000 |       0.0000 |       0.0000 |       0.0000 |       0.0000 |       0.0000 |       0.0000 |       0.0000 |
il1.repl_rate                               0.0005 |       0.0005 |       0.0004 |       0.0004 |       0.0002 |       0.0002 |       0.0002 |       0.0002 |       0.0001 |       0.0001 |       0.0001 |       0.0001 |       0.0001 |       0.0001 |       0.0000 |       0.0000 |       0.0000 |       0.0000 |       0.0000 |       0.0000 |       0.0000 |       0.0000 |       0.0000 |       0.0000 |       0.0000 |       0.0000 |       0.0000 |       0.0000 |       0.0000 |       0.0000 |       0.0000 |       0.0000 |       0.0000 |       0.0000 |       0.0000 |       0.0000 |       0.0000 |       0.0000 |       0.0000 |       0.0000 |       0.0000 |       0.0000 |       0.0000 |       0.0000 |
il1.wb_rate                                 0.0000 |       0.0000 |       0.0000 |       0.0000 |       0.0000 |       0.0000 |       0.0000 |       0.0000 |       0.0000 |       0.0000 |       0.0000 |       0.0000 |       0.0000 |       0.0000 |       0.0000 |       0.0000 |       0.0000 |       0.0000 |       0.0000 |       0.0000 |       0.0000 |       0.0000 |       0.0000 |       0.0000 |       0.0000 |       0.0000 |       0.0000 |       0.0000 |       0.0000 |       0.0000 |       0.0000 |       0.0000 |       0.0000 |       0.0000 |       0.0000 |       0.0000 |       0.0000 |       0.0000 |       0.0000 |       0.0000 |       0.0000 |       0.0000 |       0.0000 |       0.0000 |
il1.inv_rate                                0.0000 |       0.0000 |       0.0000 |       0.0000 |       0.0000 |       0.0000 |       0.0000 |       0.0000 |       0.0000 |       0.0000 |       0.0000 |       0.0000 |       0.0000 |       0.0000 |       0.0000 |       0.0000 |       0.0000 |       0.0000 |       0.0000 |       0.0000 |       0.0000 |       0.0000 |       0.0000 |       0.0000 |       0.0000 |       0.0000 |       0.0000 |       0.0000 |       0.0000 |       0.0000 |       0.0000 |       0.0000 |       0.0000 |       0.0000 |       0.0000 |       0.0000 |       0.0000 |       0.0000 |       0.0000 |       0.0000 |       0.0000 |       0.0000 |       0.0000 |       0.0000 |
dl1.accesses                                139931 |       139931 |       139931 |       139931 |       291087 |       291087 |       291087 |       291087 |       610910 |       610910 |       610910 |       610910 |      1295780 |      1295780 |      1295780 |      1295780 |      2732349 |      2732349 |      2732349 |      2732349 |      5738442 |      5738442 |      5738442 |      5738442 |     12008088 |     12008088 |     12008088 |     12008088 |     25659523 |     25659523 |     25659523 |     25659523 |     52776545 |     52776545 |     52776545 |     52776545 |    136336377 |    136336377 |    136336377 |    136336377 |    279953453 |    279953453 |    279953453 |    279953453 |
dl1.hits                                    137692 |       137692 |       137702 |       137702 |       286285 |       286285 |       286327 |       286327 |       599979 |       599979 |       599842 |       599842 |      1267248 |      1267248 |      1267315 |      1267315 |      2666222 |      2666222 |      2666654 |      2666654 |      5585371 |      5585371 |      5586827 |      5586827 |     11670644 |     11670644 |     11673126 |     11673126 |     24822868 |     24822868 |     24830156 |     24830156 |     51063877 |     51063877 |     51080848 |     51080848 |    127418927 |    127418927 |    132677135 |    132677135 |    267800463 |    267800463 |    272498696 |    272498696 |
dl1.misses                                    2239 |         2239 |         2229 |         2229 |         4802 |         4802 |         4760 |         4760 |        10931 |        10931 |        11068 |        11068 |        28532 |        28532 |        28465 |        28465 |        66127 |        66127 |        65695 |        65695 |       153071 |       153071 |       151615 |       151615 |       337444 |       337444 |       334962 |       334962 |       836655 |       836655 |       829367 |       829367 |      1712668 |      1712668 |      1695697 |      1695697 |      8917450 |      8917450 |      3659242 |      3659242 |     12152990 |     12152990 |      7454757 |      7454757 |
dl1.replacements                              1983 |         1983 |         1973 |         1973 |         4546 |         4546 |         4504 |         4504 |        10675 |        10675 |        10812 |        10812 |        28276 |        28276 |        28209 |        28209 |        65871 |        65871 |        65439 |        65439 |       152815 |       152815 |       151359 |       151359 |       337188 |       337188 |       334706 |       334706 |       836399 |       836399 |       829111 |       829111 |      1712412 |      1712412 |      1695441 |      1695441 |      8917194 |      8917194 |      3658986 |      3658986 |     12152734 |     12152734 |      7454501 |      7454501 |
dl1.writebacks                                1911 |         1911 |         1920 |         1920 |         4411 |         4411 |         4415 |         4415 |        10443 |        10443 |        10644 |        10644 |        26391 |        26391 |        26600 |        26600 |        60286 |        60286 |        60572 |        60572 |       142697 |       142697 |       142799 |       142799 |       315909 |       315909 |       316736 |       316736 |       723294 |       723294 |       723562 |       723562 |      1560884 |      1560884 |      1561083 |      1561083 |      5484122 |      5484122 |      2971750 |      2971750 |     10076255 |     10076255 |      6008069 |      6008069 |
dl1.invalidations                                0 |            0 |            0 |            0 |            0 |            0 |            0 |            0 |            0 |            0 |            0 |            0 |            0 |            0 |            0 |            0 |            0 |            0 |            0 |            0 |            0 |            0 |            0 |            0 |            0 |            0 |            0 |            0 |            0 |            0 |            0 |            0 |            0 |            0 |            0 |            0 |            0 |            0 |            0 |            0 |            0 |            0 |            0 |            0 |
dl1.miss_rate                               0.0160 |       0.0160 |       0.0159 |       0.0159 |       0.0165 |       0.0165 |       0.0164 |       0.0164 |       0.0179 |       0.0179 |       0.0181 |       0.0181 |       0.0220 |       0.0220 |       0.0220 |       0.0220 |       0.0242 |       0.0242 |       0.0240 |       0.0240 |       0.0267 |       0.0267 |       0.0264 |       0.0264 |       0.0281 |       0.0281 |       0.0279 |       0.0279 |       0.0326 |       0.0326 |       0.0323 |       0.0323 |       0.0325 |       0.0325 |       0.0321 |       0.0321 |       0.0654 |       0.0654 |       0.0268 |       0.0268 |       0.0434 |       0.0434 |       0.0266 |       0.0266 |
dl1.repl_rate                               0.0142 |       0.0142 |       0.0141 |       0.0141 |       0.0156 |       0.0156 |       0.0155 |       0.0155 |       0.0175 |       0.0175 |       0.0177 |       0.0177 |       0.0218 |       0.0218 |       0.0218 |       0.0218 |       0.0241 |       0.0241 |       0.0239 |       0.0239 |       0.0266 |       0.0266 |       0.0264 |       0.0264 |       0.0281 |       0.0281 |       0.0279 |       0.0279 |       0.0326 |       0.0326 |       0.0323 |       0.0323 |       0.0324 |       0.0324 |       0.0321 |       0.0321 |       0.0654 |       0.0654 |       0.0268 |       0.0268 |       0.0434 |       0.0434 |       0.0266 |       0.0266 |
dl1.wb_rate                                 0.0137 |       0.0137 |       0.0137 |       0.0137 |       0.0152 |       0.0152 |       0.0152 |       0.0152 |       0.0171 |       0.0171 |       0.0174 |       0.0174 |       0.0204 |       0.0204 |       0.0205 |       0.0205 |       0.0221 |       0.0221 |       0.0222 |       0.0222 |       0.0249 |       0.0249 |       0.0249 |       0.0249 |       0.0263 |       0.0263 |       0.0264 |       0.0264 |       0.0282 |       0.0282 |       0.0282 |       0.0282 |       0.0296 |       0.0296 |       0.0296 |       0.0296 |       0.0402 |       0.0402 |       0.0218 |       0.0218 |       0.0360 |       0.0360 |       0.0215 |       0.0215 |
dl1.inv_rate                                0.0000 |       0.0000 |       0.0000 |       0.0000 |       0.0000 |       0.0000 |       0.0000 |       0.0000 |       0.0000 |       0.0000 |       0.0000 |       0.0000 |       0.0000 |       0.0000 |       0.0000 |       0.0000 |       0.0000 |       0.0000 |       0.0000 |       0.0000 |       0.0000 |       0.0000 |       0.0000 |       0.0000 |       0.0000 |       0.0000 |       0.0000 |       0.0000 |       0.0000 |       0.0000 |       0.0000 |       0.0000 |       0.0000 |       0.0000 |       0.0000 |       0.0000 |       0.0000 |       0.0000 |       0.0000 |       0.0000 |       0.0000 |       0.0000 |       0.0000 |       0.0000 |
dl2.accesses                                  4628 |         4628 |         4588 |         4588 |         9684 |         9684 |         9609 |         9609 |        21835 |        21835 |        22145 |        22145 |        55397 |        55397 |        55503 |        55503 |       126893 |       126893 |       126711 |       126711 |       296242 |       296242 |       294852 |       294852 |       653825 |       653825 |       652134 |       652134 |      1560426 |      1560426 |      1553370 |      1553370 |      3274026 |      3274026 |      3257218 |      3257218 |     14402325 |     14402325 |      6631695 |      6631695 |     22230001 |     22230001 |     13463537 |     13463537 |
dl2.hits                                      3198 |         3198 |         3199 |         3199 |         7747 |         7747 |         7713 |         7713 |        18892 |        18892 |        19240 |        19240 |        50398 |        50398 |        50547 |        50547 |       117791 |       117791 |       117652 |       117652 |       278954 |       278954 |       277607 |       277607 |       620155 |       620155 |       618507 |       618507 |      1493983 |      1493326 |      1486970 |      1462647 |      3141442 |      2916795 |      3056369 |      2884143 |     13055964 |     13019974 |      5328856 |      5260672 |     19536390 |     19458985 |     10826430 |     10702091 |
dl2.misses                                    1430 |         1430 |         1389 |         1389 |         1937 |         1937 |         1896 |         1896 |         2943 |         2943 |         2905 |         2905 |         4999 |         4999 |         4956 |         4956 |         9102 |         9102 |         9059 |         9059 |        17288 |        17288 |        17245 |        17245 |        33670 |        33670 |        33627 |        33627 |        66443 |        67100 |        66400 |        90723 |       132584 |       357231 |       200849 |       373075 |      1346361 |      1382351 |      1302839 |      1371023 |      2693611 |      2771016 |      2637107 |      2761446 |
dl2.replacements                               288 |          288 |            0 |            0 |          291 |          291 |            0 |            0 |          283 |          283 |            0 |            0 |          289 |          289 |            0 |            0 |          295 |          295 |            0 |            0 |          289 |          289 |            0 |            0 |          295 |          295 |            0 |            0 |          292 |         1564 |            0 |        25187 |         1512 |       291695 |        69777 |       307539 |      1215289 |      1316815 |      1171767 |      1305487 |      2562539 |      2705480 |      2506035 |      2695910 |
dl2.writebacks                                 154 |          154 |            0 |            0 |          153 |          153 |            0 |            0 |          152 |          152 |            0 |            0 |          153 |          153 |            0 |            0 |          153 |          153 |            0 |            0 |          153 |          153 |            0 |            0 |          153 |          153 |            0 |            0 |          153 |         1277 |            0 |        24941 |         1247 |       287135 |        69546 |       302818 |       735564 |       798143 |       721888 |       805854 |      1557826 |      1672685 |      1516929 |      1673827 |
dl2.invalidations                                0 |            0 |            0 |            0 |            0 |            0 |            0 |            0 |            0 |            0 |            0 |            0 |            0 |            0 |            0 |            0 |            0 |            0 |            0 |            0 |            0 |            0 |            0 |            0 |            0 |            0 |            0 |            0 |            0 |            0 |            0 |            0 |            0 |            0 |            0 |            0 |            0 |            0 |            0 |            0 |            0 |            0 |            0 |            0 |
dl2.miss_rate                               0.3090 |       0.3090 |       0.3027 |       0.3027 |       0.2000 |       0.2000 |       0.1973 |       0.1973 |       0.1348 |       0.1348 |       0.1312 |       0.1312 |       0.0902 |       0.0902 |       0.0893 |       0.0893 |       0.0717 |       0.0717 |       0.0715 |       0.0715 |       0.0584 |       0.0584 |       0.0585 |       0.0585 |       0.0515 |       0.0515 |       0.0516 |       0.0516 |       0.0426 |       0.0430 |       0.0427 |       0.0584 |       0.0405 |       0.1091 |       0.0617 |       0.1145 |       0.0935 |       0.0960 |       0.1965 |       0.2067 |       0.1212 |       0.1247 |       0.1959 |       0.2051 |
dl2.repl_rate                               0.0622 |       0.0622 |       0.0000 |       0.0000 |       0.0300 |       0.0300 |       0.0000 |       0.0000 |       0.0130 |       0.0130 |       0.0000 |       0.0000 |       0.0052 |       0.0052 |       0.0000 |       0.0000 |       0.0023 |       0.0023 |       0.0000 |       0.0000 |       0.0010 |       0.0010 |       0.0000 |       0.0000 |       0.0005 |       0.0005 |       0.0000 |       0.0000 |       0.0002 |       0.0010 |       0.0000 |       0.0162 |       0.0005 |       0.0891 |       0.0214 |       0.0944 |       0.0844 |       0.0914 |       0.1767 |       0.1969 |       0.1153 |       0.1217 |       0.1861 |       0.2002 |
dl2.wb_rate                                 0.0333 |       0.0333 |       0.0000 |       0.0000 |       0.0158 |       0.0158 |       0.0000 |       0.0000 |       0.0070 |       0.0070 |       0.0000 |       0.0000 |       0.0028 |       0.0028 |       0.0000 |       0.0000 |       0.0012 |       0.0012 |       0.0000 |       0.0000 |       0.0005 |       0.0005 |       0.0000 |       0.0000 |       0.0002 |       0.0002 |       0.0000 |       0.0000 |       0.0001 |       0.0008 |       0.0000 |       0.0161 |       0.0004 |       0.0877 |       0.0214 |       0.0930 |       0.0511 |       0.0554 |       0.1089 |       0.1215 |       0.0701 |       0.0752 |       0.1127 |       0.1243 |
dl2.inv_rate                                0.0000 |       0.0000 |       0.0000 |       0.0000 |       0.0000 |       0.0000 |       0.0000 |       0.0000 |       0.0000 |       0.0000 |       0.0000 |       0.0000 |       0.0000 |       0.0000 |       0.0000 |       0.0000 |       0.0000 |       0.0000 |       0.0000 |       0.0000 |       0.0000 |       0.0000 |       0.0000 |       0.0000 |       0.0000 |       0.0000 |       0.0000 |       0.0000 |       0.0000 |       0.0000 |       0.0000 |       0.0000 |       0.0000 |       0.0000 |       0.0000 |       0.0000 |       0.0000 |       0.0000 |       0.0000 |       0.0000 |       0.0000 |       0.0000 |       0.0000 |       0.0000 |
itlb.accesses                               467099 |       467099 |       467099 |       467099 |       985432 |       985432 |       985432 |       985432 |      2107993 |      2107993 |      2107993 |      2107993 |      4574005 |      4574005 |      4574005 |      4574005 |      9767553 |      9767553 |      9767553 |      9767553 |     20707663 |     20707663 |     20707663 |     20707663 |     43650983 |     43650983 |     43650983 |     43650983 |     95784101 |     95784101 |     95784101 |     95784101 |    196105849 |    196105849 |    196105849 |    196105849 |    527292490 |    527292490 |    527292490 |    527292490 |   1100580240 |   1100580240 |   1100580240 |   1100580240 |
itlb.hits                                   467088 |       467088 |       467088 |       467088 |       985421 |       985421 |       985421 |       985421 |      2107982 |      2107982 |      2107982 |      2107982 |      4573993 |      4573993 |      4573993 |      4573993 |      9767541 |      9767541 |      9767541 |      9767541 |     20707651 |     20707651 |     20707651 |     20707651 |     43650971 |     43650971 |     43650971 |     43650971 |     95784089 |     95784089 |     95784089 |     95784089 |    196105837 |    196105837 |    196105837 |    196105837 |    527292478 |    527292478 |    527292478 |    527292478 |   1100580228 |   1100580228 |   1100580228 |   1100580228 |
itlb.misses                                     11 |           11 |           11 |           11 |           11 |           11 |           11 |           11 |           11 |           11 |           11 |           11 |           12 |           12 |           12 |           12 |           12 |           12 |           12 |           12 |           12 |           12 |           12 |           12 |           12 |           12 |           12 |           12 |           12 |           12 |           12 |           12 |           12 |           12 |           12 |           12 |           12 |           12 |           12 |           12 |           12 |           12 |           12 |           12 |
itlb.replacements                                0 |            0 |            0 |            0 |            0 |            0 |            0 |            0 |            0 |            0 |            0 |            0 |            0 |            0 |            0 |            0 |            0 |            0 |            0 |            0 |            0 |            0 |            0 |            0 |            0 |            0 |            0 |            0 |            0 |            0 |            0 |            0 |            0 |            0 |            0 |            0 |            0 |            0 |            0 |            0 |            0 |            0 |            0 |            0 |
itlb.writebacks                                  0 |            0 |            0 |            0 |            0 |            0 |            0 |            0 |            0 |            0 |            0 |            0 |            0 |            0 |            0 |            0 |            0 |            0 |            0 |            0 |            0 |            0 |            0 |            0 |            0 |            0 |            0 |            0 |            0 |            0 |            0 |            0 |            0 |            0 |            0 |            0 |            0 |            0 |            0 |            0 |            0 |            0 |            0 |            0 |
itlb.invalidations                               0 |            0 |            0 |            0 |            0 |            0 |            0 |            0 |            0 |            0 |            0 |            0 |            0 |            0 |            0 |            0 |            0 |            0 |            0 |            0 |            0 |            0 |            0 |            0 |            0 |            0 |            0 |            0 |            0 |            0 |            0 |            0 |            0 |            0 |            0 |            0 |            0 |            0 |            0 |            0 |            0 |            0 |            0 |            0 |
itlb.miss_rate                              0.0000 |       0.0000 |       0.0000 |       0.0000 |       0.0000 |       0.0000 |       0.0000 |       0.0000 |       0.0000 |       0.0000 |       0.0000 |       0.0000 |       0.0000 |       0.0000 |       0.0000 |       0.0000 |       0.0000 |       0.0000 |       0.0000 |       0.0000 |       0.0000 |       0.0000 |       0.0000 |       0.0000 |       0.0000 |       0.0000 |       0.0000 |       0.0000 |       0.0000 |       0.0000 |       0.0000 |       0.0000 |       0.0000 |       0.0000 |       0.0000 |       0.0000 |       0.0000 |       0.0000 |       0.0000 |       0.0000 |       0.0000 |       0.0000 |       0.0000 |       0.0000 |
itlb.repl_rate                              0.0000 |       0.0000 |       0.0000 |       0.0000 |       0.0000 |       0.0000 |       0.0000 |       0.0000 |       0.0000 |       0.0000 |       0.0000 |       0.0000 |       0.0000 |       0.0000 |       0.0000 |       0.0000 |       0.0000 |       0.0000 |       0.0000 |       0.0000 |       0.0000 |       0.0000 |       0.0000 |       0.0000 |       0.0000 |       0.0000 |       0.0000 |       0.0000 |       0.0000 |       0.0000 |       0.0000 |       0.0000 |       0.0000 |       0.0000 |       0.0000 |       0.0000 |       0.0000 |       0.0000 |       0.0000 |       0.0000 |       0.0000 |       0.0000 |       0.0000 |       0.0000 |
itlb.wb_rate                                0.0000 |       0.0000 |       0.0000 |       0.0000 |       0.0000 |       0.0000 |       0.0000 |       0.0000 |       0.0000 |       0.0000 |       0.0000 |       0.0000 |       0.0000 |       0.0000 |       0.0000 |       0.0000 |       0.0000 |       0.0000 |       0.0000 |       0.0000 |       0.0000 |       0.0000 |       0.0000 |       0.0000 |       0.0000 |       0.0000 |       0.0000 |       0.0000 |       0.0000 |       0.0000 |       0.0000 |       0.0000 |       0.0000 |       0.0000 |       0.0000 |       0.0000 |       0.0000 |       0.0000 |       0.0000 |       0.0000 |       0.0000 |       0.0000 |       0.0000 |       0.0000 |
itlb.inv_rate                               0.0000 |       0.0000 |       0.0000 |       0.0000 |       0.0000 |       0.0000 |       0.0000 |       0.0000 |       0.0000 |       0.0000 |       0.0000 |       0.0000 |       0.0000 |       0.0000 |       0.0000 |       0.0000 |       0.0000 |       0.0000 |       0.0000 |       0.0000 |       0.0000 |       0.0000 |       0.0000 |       0.0000 |       0.0000 |       0.0000 |       0.0000 |       0.0000 |       0.0000 |       0.0000 |       0.0000 |       0.0000 |       0.0000 |       0.0000 |       0.0000 |       0.0000 |       0.0000 |       0.0000 |       0.0000 |       0.0000 |       0.0000 |       0.0000 |       0.0000 |       0.0000 |
dtlb.accesses                               139931 |       139931 |       139931 |       139931 |       291087 |       291087 |       291087 |       291087 |       610910 |       610910 |       610910 |       610910 |      1295780 |      1295780 |      1295780 |      1295780 |      2732349 |      2732349 |      2732349 |      2732349 |      5738442 |      5738442 |      5738442 |      5738442 |     12008088 |     12008088 |     12008088 |     12008088 |     25659523 |     25659523 |     25659523 |     25659523 |     52776545 |     52776545 |     52776545 |     52776545 |    136336377 |    136336377 |    136336377 |    136336377 |    279953453 |    279953453 |    279953453 |    279953453 |
dtlb.hits                                   139919 |       139919 |       139919 |       139919 |       291071 |       291071 |       291071 |       291071 |       610886 |       610886 |       610886 |       610886 |      1295740 |      1295740 |      1295740 |      1295740 |      2732277 |      2732277 |      2732277 |      2732277 |      5738279 |      5738279 |      5738279 |      5738279 |     12007322 |     12007322 |     12007322 |     12007322 |     25656702 |     25656702 |     25656702 |     25656702 |     52770850 |     52770850 |     52770850 |     52770850 |    136322204 |    136322204 |    136322204 |    136322204 |    279924727 |    279924727 |    279924727 |    279924727 |
dtlb.misses                                     12 |           12 |           12 |           12 |           16 |           16 |           16 |           16 |           24 |           24 |           24 |           24 |           40 |           40 |           40 |           40 |           72 |           72 |           72 |           72 |          163 |          163 |          163 |          163 |          766 |          766 |          766 |          766 |         2821 |         2821 |         2821 |         2821 |         5695 |         5695 |         5695 |         5695 |        14173 |        14173 |        14173 |        14173 |        28726 |        28726 |        28726 |        28726 |
dtlb.replacements                                0 |            0 |            0 |            0 |            0 |            0 |            0 |            0 |            0 |            0 |            0 |            0 |            0 |            0 |            0 |            0 |            0 |            0 |            0 |            0 |           35 |           35 |           35 |           35 |          638 |          638 |          638 |          638 |         2693 |         2693 |         2693 |         2693 |         5567 |         5567 |         5567 |         5567 |        14045 |        14045 |        14045 |        14045 |        28598 |        28598 |        28598 |        28598 |
dtlb.writebacks                                  0 |            0 |            0 |            0 |            0 |            0 |            0 |            0 |            0 |            0 |            0 |            0 |            0 |            0 |            0 |            0 |            0 |            0 |            0 |            0 |           33 |           33 |           33 |           33 |          636 |          636 |          636 |          636 |         2691 |         2691 |         2691 |         2691 |         5565 |         5565 |         5565 |         5565 |        11981 |        11981 |        11981 |        11981 |        24474 |        24474 |        24474 |        24474 |
dtlb.invalidations                               0 |            0 |            0 |            0 |            0 |            0 |            0 |            0 |            0 |            0 |            0 |            0 |            0 |            0 |            0 |            0 |            0 |            0 |            0 |            0 |            0 |            0 |            0 |            0 |            0 |            0 |            0 |            0 |            0 |            0 |            0 |            0 |            0 |            0 |            0 |            0 |            0 |            0 |            0 |            0 |            0 |            0 |            0 |            0 |
dtlb.miss_rate                              0.0001 |       0.0001 |       0.0001 |       0.0001 |       0.0001 |       0.0001 |       0.0001 |       0.0001 |       0.0000 |       0.0000 |       0.0000 |       0.0000 |       0.0000 |       0.0000 |       0.0000 |       0.0000 |       0.0000 |       0.0000 |       0.0000 |       0.0000 |       0.0000 |       0.0000 |       0.0000 |       0.0000 |       0.0001 |       0.0001 |       0.0001 |       0.0001 |       0.0001 |       0.0001 |       0.0001 |       0.0001 |       0.0001 |       0.0001 |       0.0001 |       0.0001 |       0.0001 |       0.0001 |       0.0001 |       0.0001 |       0.0001 |       0.0001 |       0.0001 |       0.0001 |
dtlb.repl_rate                              0.0000 |       0.0000 |       0.0000 |       0.0000 |       0.0000 |       0.0000 |       0.0000 |       0.0000 |       0.0000 |       0.0000 |       0.0000 |       0.0000 |       0.0000 |       0.0000 |       0.0000 |       0.0000 |       0.0000 |       0.0000 |       0.0000 |       0.0000 |       0.0000 |       0.0000 |       0.0000 |       0.0000 |       0.0001 |       0.0001 |       0.0001 |       0.0001 |       0.0001 |       0.0001 |       0.0001 |       0.0001 |       0.0001 |       0.0001 |       0.0001 |       0.0001 |       0.0001 |       0.0001 |       0.0001 |       0.0001 |       0.0001 |       0.0001 |       0.0001 |       0.0001 |
dtlb.wb_rate                                0.0000 |       0.0000 |       0.0000 |       0.0000 |       0.0000 |       0.0000 |       0.0000 |       0.0000 |       0.0000 |       0.0000 |       0.0000 |       0.0000 |       0.0000 |       0.0000 |       0.0000 |       0.0000 |       0.0000 |       0.0000 |       0.0000 |       0.0000 |       0.0000 |       0.0000 |       0.0000 |       0.0000 |       0.0001 |       0.0001 |       0.0001 |       0.0001 |       0.0001 |       0.0001 |       0.0001 |       0.0001 |       0.0001 |       0.0001 |       0.0001 |       0.0001 |       0.0001 |       0.0001 |       0.0001 |       0.0001 |       0.0001 |       0.0001 |       0.0001 |       0.0001 |
dtlb.inv_rate                               0.0000 |       0.0000 |       0.0000 |       0.0000 |       0.0000 |       0.0000 |       0.0000 |       0.0000 |       0.0000 |       0.0000 |       0.0000 |       0.0000 |       0.0000 |       0.0000 |       0.0000 |       0.0000 |       0.0000 |       0.0000 |       0.0000 |       0.0000 |       0.0000 |       0.0000 |       0.0000 |       0.0000 |       0.0000 |       0.0000 |       0.0000 |       0.0000 |       0.0000 |       0.0000 |       0.0000 |       0.0000 |       0.0000 |       0.0000 |       0.0000 |       0.0000 |       0.0000 |       0.0000 |       0.0000 |       0.0000 |       0.0000 |       0.0000 |       0.0000 |       0.0000 |
ld_text_base                            0x00400000 |   0x00400000 |   0x00400000 |   0x00400000 |   0x00400000 |   0x00400000 |   0x00400000 |   0x00400000 |   0x00400000 |   0x00400000 |   0x00400000 |   0x00400000 |   0x00400000 |   0x00400000 |   0x00400000 |   0x00400000 |   0x00400000 |   0x00400000 |   0x00400000 |   0x00400000 |   0x00400000 |   0x00400000 |   0x00400000 |   0x00400000 |   0x00400000 |   0x00400000 |   0x00400000 |   0x00400000 |   0x00400000 |   0x00400000 |   0x00400000 |   0x00400000 |   0x00400000 |   0x00400000 |   0x00400000 |   0x00400000 |   0x00400000 |   0x00400000 |   0x00400000 |   0x00400000 |   0x00400000 |   0x00400000 |   0x00400000 |   0x00400000 |
ld_text_size                                 78496 |        78496 |        78496 |        78496 |        78528 |        78528 |        78528 |        78528 |        78544 |        78544 |        78544 |        78544 |        78560 |        78560 |        78560 |        78560 |        78560 |        78560 |        78560 |        78560 |        78560 |        78560 |        78560 |        78560 |        78560 |        78560 |        78560 |        78560 |        78560 |        78560 |        78560 |        78560 |        78560 |        78560 |        78560 |        78560 |        78560 |        78560 |        78560 |        78560 |        78560 |        78560 |        78560 |        78560 |
ld_data_base                            0x10000000 |   0x10000000 |   0x10000000 |   0x10000000 |   0x10000000 |   0x10000000 |   0x10000000 |   0x10000000 |   0x10000000 |   0x10000000 |   0x10000000 |   0x10000000 |   0x10000000 |   0x10000000 |   0x10000000 |   0x10000000 |   0x10000000 |   0x10000000 |   0x10000000 |   0x10000000 |   0x10000000 |   0x10000000 |   0x10000000 |   0x10000000 |   0x10000000 |   0x10000000 |   0x10000000 |   0x10000000 |   0x10000000 |   0x10000000 |   0x10000000 |   0x10000000 |   0x10000000 |   0x10000000 |   0x10000000 |   0x10000000 |   0x10000000 |   0x10000000 |   0x10000000 |   0x10000000 |   0x10000000 |   0x10000000 |   0x10000000 |   0x10000000 |
ld_data_size                                  8192 |         8192 |         8192 |         8192 |         8192 |         8192 |         8192 |         8192 |         8192 |         8192 |         8192 |         8192 |         8192 |         8192 |         8192 |         8192 |         8192 |         8192 |         8192 |         8192 |         8192 |         8192 |         8192 |         8192 |         8192 |         8192 |         8192 |         8192 |         8192 |         8192 |         8192 |         8192 |         8192 |         8192 |         8192 |         8192 |         8192 |         8192 |         8192 |         8192 |         8192 |         8192 |         8192 |         8192 |
ld_stack_base                           0x7fffc000 |   0x7fffc000 |   0x7fffc000 |   0x7fffc000 |   0x7fffc000 |   0x7fffc000 |   0x7fffc000 |   0x7fffc000 |   0x7fffc000 |   0x7fffc000 |   0x7fffc000 |   0x7fffc000 |   0x7fffc000 |   0x7fffc000 |   0x7fffc000 |   0x7fffc000 |   0x7fffc000 |   0x7fffc000 |   0x7fffc000 |   0x7fffc000 |   0x7fffc000 |   0x7fffc000 |   0x7fffc000 |   0x7fffc000 |   0x7fffc000 |   0x7fffc000 |   0x7fffc000 |   0x7fffc000 |   0x7fffc000 |   0x7fffc000 |   0x7fffc000 |   0x7fffc000 |   0x7fffc000 |   0x7fffc000 |   0x7fffc000 |   0x7fffc000 |   0x7fffc000 |   0x7fffc000 |   0x7fffc000 |   0x7fffc000 |   0x7fffc000 |   0x7fffc000 |   0x7fffc000 |   0x7fffc000 |
ld_stack_size                                16384 |        16384 |        16384 |        16384 |        16384 |        16384 |        16384 |        16384 |        16384 |        16384 |        16384 |        16384 |        16384 |        16384 |        16384 |        16384 |        16384 |        16384 |        16384 |        16384 |        16384 |        16384 |        16384 |        16384 |        16384 |        16384 |        16384 |        16384 |        16384 |        16384 |        16384 |        16384 |        16384 |        16384 |        16384 |        16384 |        16384 |        16384 |        16384 |        16384 |        16384 |        16384 |        16384 |        16384 |
ld_prog_entry                           0x00400140 |   0x00400140 |   0x00400140 |   0x00400140 |   0x00400140 |   0x00400140 |   0x00400140 |   0x00400140 |   0x00400140 |   0x00400140 |   0x00400140 |   0x00400140 |   0x00400140 |   0x00400140 |   0x00400140 |   0x00400140 |   0x00400140 |   0x00400140 |   0x00400140 |   0x00400140 |   0x00400140 |   0x00400140 |   0x00400140 |   0x00400140 |   0x00400140 |   0x00400140 |   0x00400140 |   0x00400140 |   0x00400140 |   0x00400140 |   0x00400140 |   0x00400140 |   0x00400140 |   0x00400140 |   0x00400140 |   0x00400140 |   0x00400140 |   0x00400140 |   0x00400140 |   0x00400140 |   0x00400140 |   0x00400140 |   0x00400140 |   0x00400140 |
ld_environ_base                         0x7fff8000 |   0x7fff8000 |   0x7fff8000 |   0x7fff8000 |   0x7fff8000 |   0x7fff8000 |   0x7fff8000 |   0x7fff8000 |   0x7fff8000 |   0x7fff8000 |   0x7fff8000 |   0x7fff8000 |   0x7fff8000 |   0x7fff8000 |   0x7fff8000 |   0x7fff8000 |   0x7fff8000 |   0x7fff8000 |   0x7fff8000 |   0x7fff8000 |   0x7fff8000 |   0x7fff8000 |   0x7fff8000 |   0x7fff8000 |   0x7fff8000 |   0x7fff8000 |   0x7fff8000 |   0x7fff8000 |   0x7fff8000 |   0x7fff8000 |   0x7fff8000 |   0x7fff8000 |   0x7fff8000 |   0x7fff8000 |   0x7fff8000 |   0x7fff8000 |   0x7fff8000 |   0x7fff8000 |   0x7fff8000 |   0x7fff8000 |   0x7fff8000 |   0x7fff8000 |   0x7fff8000 |   0x7fff8000 |
ld_target_big_endian                             0 |            0 |            0 |            0 |            0 |            0 |            0 |            0 |            0 |            0 |            0 |            0 |            0 |            0 |            0 |            0 |            0 |            0 |            0 |            0 |            0 |            0 |            0 |            0 |            0 |            0 |            0 |            0 |            0 |            0 |            0 |            0 |            0 |            0 |            0 |            0 |            0 |            0 |            0 |            0 |            0 |            0 |            0 |            0 |
mem.page_count                                  32 |           32 |           32 |           32 |           36 |           36 |           36 |           36 |           44 |           44 |           44 |           44 |           60 |           60 |           60 |           60 |           92 |           92 |           92 |           92 |          156 |          156 |          156 |          156 |          284 |          284 |          284 |          284 |          540 |          540 |          540 |          540 |         1052 |         1052 |         1052 |         1052 |         4146 |         4146 |         4146 |         4146 |         8269 |         8269 |         8269 |         8269 |
mem.page_mem                                  128k |         128k |         128k |         128k |         144k |         144k |         144k |         144k |         176k |         176k |         176k |         176k |         240k |         240k |         240k |         240k |         368k |         368k |         368k |         368k |         624k |         624k |         624k |         624k |        1136k |        1136k |        1136k |        1136k |        2160k |        2160k |        2160k |        2160k |        4208k |        4208k |        4208k |        4208k |       16584k |       16584k |       16584k |       16584k |       33076k |       33076k |       33076k |       33076k |
mem.ptab_misses                                 32 |           32 |           32 |           32 |           36 |           36 |           36 |           36 |           44 |           44 |           44 |           44 |           60 |           60 |           60 |           60 |           92 |           92 |           92 |           92 |          156 |          156 |          156 |          156 |          284 |          284 |          284 |          284 |          540 |          540 |          540 |          540 |         1052 |         1052 |         1052 |         1052 |        22560 |        22560 |        22560 |        22560 |        26683 |        26683 |        26683 |        26683 |
mem.ptab_accesses                          2633878 |      2633878 |      2633878 |      2633878 |      5009714 |      5009714 |      5009714 |      5009714 |     10139700 |     10139700 |     10139700 |     10139700 |     21373584 |     21373584 |     21373584 |     21373584 |     45020914 |     45020914 |     45020914 |     45020914 |     94793540 |     94793540 |     94793540 |     94793540 |    199106112 |    199106112 |    199106112 |    199106112 |    434941454 |    434941454 |    434941454 |    434941454 |    890462490 |    890462490 |    890462490 |    890462490 |   2382328718 |   2382328718 |   2382328718 |   2382328718 |   4962713870 |   4962713870 |   4962713870 |   4962713870 |
mem.ptab_miss_rate                          0.0000 |       0.0000 |       0.0000 |       0.0000 |       0.0000 |       0.0000 |       0.0000 |       0.0000 |       0.0000 |       0.0000 |       0.0000 |       0.0000 |       0.0000 |       0.0000 |       0.0000 |       0.0000 |       0.0000 |       0.0000 |       0.0000 |       0.0000 |       0.0000 |       0.0000 |       0.0000 |       0.0000 |       0.0000 |       0.0000 |       0.0000 |       0.0000 |       0.0000 |       0.0000 |       0.0000 |       0.0000 |       0.0000 |       0.0000 |       0.0000 |       0.0000 |       0.0000 |       0.0000 |       0.0000 |       0.0000 |       0.0000 |       0.0000 |       0.0000 |       0.0000 |
-------------------------------------------------------------------------------------------------
sim-bpred                                     4096 |         4096 |         4096 |         4096 |         4096 |         4096 |         4096 |         8192 |         8192 |         8192 |         8192 |         8192 |         8192 |         8192 |        16384 |        16384 |        16384 |        16384 |        16384 |        16384 |        16384 |        32768 |        32768 |        32768 |        32768 |        32768 |        32768 |        32768 |        65536 |        65536 |        65536 |        65536 |        65536 |        65536 |        65536 |       131072 |       131072 |       131072 |       131072 |       131072 |       131072 |       131072 |       262144 |       262144 |       262144 |       262144 |       262144 |       262144 |       262144 |       524288 |       524288 |       524288 |       524288 |       524288 |       524288 |       524288 |      1048576 |      1048576 |      1048576 |      1048576 |      1048576 |      1048576 |      1048576 |      2097152 |      2097152 |      2097152 |      2097152 |      2097152 |      2097152 |      2097152 |      4194304 |      4194304 |      4194304 |      4194304 |      4194304 |      4194304 |      4194304 |
-bpred bimod -bpred:bimod 512
-bpred bimod -bpred:bimod 1024
-bpred bimod -bpred:bimod 2048
-bpred 2lev -bpred:2lev 1 512 10 1
-bpred 2lev -bpred:2lev 1 1024 10 1
-bpred 2lev -bpred:2lev 1 2048 10 1
-bpred 2lev -bpred:2lev 1 4096 10 1
-------------------------------------------------------------------------------------------------
sim_num_insn                                467099 |       467099 |       467099 |       467099 |       467099 |       467099 |       467099 |       985432 |       985432 |       985432 |       985432 |       985432 |       985432 |       985432 |      2107993 |      2107993 |      2107993 |      2107993 |      2107993 |      2107993 |      2107993 |      4574005 |      4574005 |      4574005 |      4574005 |      4574005 |      4574005 |      4574005 |      9767553 |      9767553 |      9767553 |      9767553 |      9767553 |      9767553 |      9767553 |     20707663 |     20707663 |     20707663 |     20707663 |     20707663 |     20707663 |     20707663 |     43650983 |     43650983 |     43650983 |     43650983 |     43650983 |     43650983 |     43650983 |     95784101 |     95784101 |     95784101 |     95784101 |     95784101 |     95784101 |     95784101 |    196105849 |    196105849 |    196105849 |    196105849 |    196105849 |    196105849 |    196105849 |    527292490 |    527292490 |    527292490 |    527292490 |    527292490 |    527292490 |    527292490 |   1100580240 |   1100580240 |   1100580240 |   1100580240 |   1100580240 |   1100580240 |   1100580240 |
sim_num_refs                                123465 |       123465 |       123465 |       123465 |       123465 |       123465 |       123465 |       258237 |       258237 |       258237 |       258237 |       258237 |       258237 |       258237 |       545292 |       545292 |       545292 |       545292 |       545292 |       545292 |       545292 |      1164626 |      1164626 |      1164626 |      1164626 |      1164626 |      1164626 |      1164626 |      2470123 |      2470123 |      2470123 |      2470123 |      2470123 |      2470123 |      2470123 |      5214072 |      5214072 |      5214072 |      5214072 |      5214072 |      5214072 |      5214072 |     10959430 |     10959430 |     10959430 |     10959430 |     10959430 |     10959430 |     10959430 |     23562289 |     23562289 |     23562289 |     23562289 |     23562289 |     23562289 |     23562289 |     48582159 |     48582159 |     48582159 |     48582159 |     48582159 |     48582159 |     48582159 |    127947686 |    127947686 |    127947686 |    127947686 |    127947686 |    127947686 |    127947686 |    263176154 |    263176154 |    263176154 |    263176154 |    263176154 |    263176154 |    263176154 |
sim_elapsed_time                                 1 |            1 |            1 |            1 |            1 |            1 |            1 |            1 |            1 |            1 |            1 |            1 |            1 |            1 |            1 |            1 |            1 |            1 |            1 |            1 |            1 |            1 |            1 |            1 |            1 |            1 |            1 |            1 |            1 |            2 |            1 |            1 |            1 |            1 |            2 |            2 |            3 |            2 |            3 |            2 |            3 |            3 |            5 |            5 |            5 |            5 |            5 |            5 |            5 |           12 |           11 |           12 |           11 |           12 |           12 |           11 |           24 |           24 |           23 |           24 |           24 |           24 |           24 |           66 |           65 |           65 |           67 |           66 |           66 |           67 |          137 |          137 |          136 |          138 |          140 |          139 |          139 |
sim_inst_rate                          467099.0000 |  467099.0000 |  467099.0000 |  467099.0000 |  467099.0000 |  467099.0000 |  467099.0000 |  985432.0000 |  985432.0000 |  985432.0000 |  985432.0000 |  985432.0000 |  985432.0000 |  985432.0000 | 2107993.0000 | 2107993.0000 | 2107993.0000 | 2107993.0000 | 2107993.0000 | 2107993.0000 | 2107993.0000 | 4574005.0000 | 4574005.0000 | 4574005.0000 | 4574005.0000 | 4574005.0000 | 4574005.0000 | 4574005.0000 | 9767553.0000 | 4883776.5000 | 9767553.0000 | 9767553.0000 | 9767553.0000 | 9767553.0000 | 4883776.5000 |10353831.5000 | 6902554.3333 |10353831.5000 | 6902554.3333 |10353831.5000 | 6902554.3333 | 6902554.3333 | 8730196.6000 | 8730196.6000 | 8730196.6000 | 8730196.6000 | 8730196.6000 | 8730196.6000 | 8730196.6000 | 7982008.4167 | 8707645.5455 | 7982008.4167 | 8707645.5455 | 7982008.4167 | 7982008.4167 | 8707645.5455 | 8171077.0417 | 8171077.0417 | 8526341.2609 | 8171077.0417 | 8171077.0417 | 8171077.0417 | 8171077.0417 | 7989280.1515 | 8112192.1538 | 8112192.1538 | 7870037.1642 | 7989280.1515 | 7989280.1515 | 7870037.1642 | 8033432.4088 | 8033432.4088 | 8092501.7647 | 7975219.1304 | 7861287.4286 | 7917843.4532 | 7917843.4532 |
sim_num_branches                             76468 |        76468 |        76468 |        76468 |        76468 |        76468 |        76468 |       163103 |       163103 |       163103 |       163103 |       163103 |       163103 |       163103 |       351290 |       351290 |       351290 |       351290 |       351290 |       351290 |       351290 |       765134 |       765134 |       765134 |       765134 |       765134 |       765134 |       765134 |      1643419 |      1643419 |      1643419 |      1643419 |      1643419 |      1643419 |      1643419 |      3502815 |      3502815 |      3502815 |      3502815 |      3502815 |      3502815 |      3502815 |      7409314 |      7409314 |      7409314 |      7409314 |      7409314 |      7409314 |      7409314 |     16268570 |     16268570 |     16268570 |     16268570 |     16268570 |     16268570 |     16268570 |     33422509 |     33422509 |     33422509 |     33422509 |     33422509 |     33422509 |     33422509 |     83516981 |     83516981 |     83516981 |     83516981 |     83516981 |     83516981 |     83516981 |    177683260 |    177683260 |    177683260 |    177683260 |    177683260 |    177683260 |    177683260 |
sim_IPB                                     6.1084 |       6.1084 |       6.1084 |       6.1084 |       6.1084 |       6.1084 |       6.1084 |       6.0418 |       6.0418 |       6.0418 |       6.0418 |       6.0418 |       6.0418 |       6.0418 |       6.0007 |       6.0007 |       6.0007 |       6.0007 |       6.0007 |       6.0007 |       6.0007 |       5.9780 |       5.9780 |       5.9780 |       5.9780 |       5.9780 |       5.9780 |       5.9780 |       5.9434 |       5.9434 |       5.9434 |       5.9434 |       5.9434 |       5.9434 |       5.9434 |       5.9117 |       5.9117 |       5.9117 |       5.9117 |       5.9117 |       5.9117 |       5.9117 |       5.8914 |       5.8914 |       5.8914 |       5.8914 |       5.8914 |       5.8914 |       5.8914 |       5.8877 |       5.8877 |       5.8877 |       5.8877 |       5.8877 |       5.8877 |       5.8877 |       5.8675 |       5.8675 |       5.8675 |       5.8675 |       5.8675 |       5.8675 |       5.8675 |       6.3136 |       6.3136 |       6.3136 |       6.3136 |       6.3136 |       6.3136 |       6.3136 |       6.1941 |       6.1941 |       6.1941 |       6.1941 |       6.1941 |       6.1941 |       6.1941 |
bpred_bimod.lookups                          76468 |        76468 |        76468 |xxxxxxxxxxxxx |xxxxxxxxxxxxx |xxxxxxxxxxxxx |xxxxxxxxxxxxx |       163103 |       163103 |       163103 |xxxxxxxxxxxxx |xxxxxxxxxxxxx |xxxxxxxxxxxxx |xxxxxxxxxxxxx |       351290 |       351290 |       351290 |xxxxxxxxxxxxx |xxxxxxxxxxxxx |xxxxxxxxxxxxx |xxxxxxxxxxxxx |       765134 |       765134 |       765134 |xxxxxxxxxxxxx |xxxxxxxxxxxxx |xxxxxxxxxxxxx |xxxxxxxxxxxxx |      1643419 |      1643419 |      1643419 |xxxxxxxxxxxxx |xxxxxxxxxxxxx |xxxxxxxxxxxxx |xxxxxxxxxxxxx |      3502815 |      3502815 |      3502815 |xxxxxxxxxxxxx |xxxxxxxxxxxxx |xxxxxxxxxxxxx |xxxxxxxxxxxxx |      7409314 |      7409314 |      7409314 |xxxxxxxxxxxxx |xxxxxxxxxxxxx |xxxxxxxxxxxxx |xxxxxxxxxxxxx |     16268570 |     16268570 |     16268570 |xxxxxxxxxxxxx |xxxxxxxxxxxxx |xxxxxxxxxxxxx |xxxxxxxxxxxxx |     33422509 |     33422509 |     33422509 |xxxxxxxxxxxxx |xxxxxxxxxxxxx |xxxxxxxxxxxxx |xxxxxxxxxxxxx |     83516981 |     83516981 |     83516981 |xxxxxxxxxxxxx |xxxxxxxxxxxxx |xxxxxxxxxxxxx |xxxxxxxxxxxxx |    177683260 |    177683260 |    177683260 |
bpred_bimod.updates                          76468 |        76468 |        76468 |xxxxxxxxxxxxx |xxxxxxxxxxxxx |xxxxxxxxxxxxx |xxxxxxxxxxxxx |       163103 |       163103 |       163103 |xxxxxxxxxxxxx |xxxxxxxxxxxxx |xxxxxxxxxxxxx |xxxxxxxxxxxxx |       351290 |       351290 |       351290 |xxxxxxxxxxxxx |xxxxxxxxxxxxx |xxxxxxxxxxxxx |xxxxxxxxxxxxx |       765134 |       765134 |       765134 |xxxxxxxxxxxxx |xxxxxxxxxxxxx |xxxxxxxxxxxxx |xxxxxxxxxxxxx |      1643419 |      1643419 |      1643419 |xxxxxxxxxxxxx |xxxxxxxxxxxxx |xxxxxxxxxxxxx |xxxxxxxxxxxxx |      3502815 |      3502815 |      3502815 |xxxxxxxxxxxxx |xxxxxxxxxxxxx |xxxxxxxxxxxxx |xxxxxxxxxxxxx |      7409314 |      7409314 |      7409314 |xxxxxxxxxxxxx |xxxxxxxxxxxxx |xxxxxxxxxxxxx |xxxxxxxxxxxxx |     16268570 |     16268570 |     16268570 |xxxxxxxxxxxxx |xxxxxxxxxxxxx |xxxxxxxxxxxxx |xxxxxxxxxxxxx |     33422509 |     33422509 |     33422509 |xxxxxxxxxxxxx |xxxxxxxxxxxxx |xxxxxxxxxxxxx |xxxxxxxxxxxxx |     83516981 |     83516981 |     83516981 |xxxxxxxxxxxxx |xxxxxxxxxxxxx |xxxxxxxxxxxxx |xxxxxxxxxxxxx |    177683260 |    177683260 |    177683260 |
bpred_bimod.addr_hits                        55083 |        55083 |        55083 |xxxxxxxxxxxxx |xxxxxxxxxxxxx |xxxxxxxxxxxxx |xxxxxxxxxxxxx |       115604 |       115603 |       115604 |xxxxxxxxxxxxx |xxxxxxxxxxxxx |xxxxxxxxxxxxx |xxxxxxxxxxxxx |       249733 |       249735 |       249736 |xxxxxxxxxxxxx |xxxxxxxxxxxxx |xxxxxxxxxxxxx |xxxxxxxxxxxxx |       551525 |       551523 |       551523 |xxxxxxxxxxxxx |xxxxxxxxxxxxx |xxxxxxxxxxxxx |xxxxxxxxxxxxx |      1183730 |      1183732 |      1183732 |xxxxxxxxxxxxx |xxxxxxxxxxxxx |xxxxxxxxxxxxx |xxxxxxxxxxxxx |      2553203 |      2553204 |      2553204 |xxxxxxxxxxxxx |xxxxxxxxxxxxx |xxxxxxxxxxxxx |xxxxxxxxxxxxx |      5373498 |      5373498 |      5373498 |xxxxxxxxxxxxx |xxxxxxxxxxxxx |xxxxxxxxxxxxx |xxxxxxxxxxxxx |     12096825 |     12096825 |     12096825 |xxxxxxxxxxxxx |xxxxxxxxxxxxx |xxxxxxxxxxxxx |xxxxxxxxxxxxx |     24462157 |     24462155 |     24462155 |xxxxxxxxxxxxx |xxxxxxxxxxxxx |xxxxxxxxxxxxx |xxxxxxxxxxxxx |     61750824 |     61750849 |     61750851 |xxxxxxxxxxxxx |xxxxxxxxxxxxx |xxxxxxxxxxxxx |xxxxxxxxxxxxx |    133712081 |    133712127 |    133712129 |
bpred_bimod.dir_hits                         55199 |        55196 |        55195 |xxxxxxxxxxxxx |xxxxxxxxxxxxx |xxxxxxxxxxxxx |xxxxxxxxxxxxx |       115715 |       115712 |       115713 |xxxxxxxxxxxxx |xxxxxxxxxxxxx |xxxxxxxxxxxxx |xxxxxxxxxxxxx |       249847 |       249846 |       249847 |xxxxxxxxxxxxx |xxxxxxxxxxxxx |xxxxxxxxxxxxx |xxxxxxxxxxxxx |       551637 |       551633 |       551633 |xxxxxxxxxxxxx |xxxxxxxxxxxxx |xxxxxxxxxxxxx |xxxxxxxxxxxxx |      1183846 |      1183846 |      1183846 |xxxxxxxxxxxxx |xxxxxxxxxxxxx |xxxxxxxxxxxxx |xxxxxxxxxxxxx |      2553319 |      2553318 |      2553318 |xxxxxxxxxxxxx |xxxxxxxxxxxxx |xxxxxxxxxxxxx |xxxxxxxxxxxxx |      5373611 |      5373609 |      5373609 |xxxxxxxxxxxxx |xxxxxxxxxxxxx |xxxxxxxxxxxxx |xxxxxxxxxxxxx |     12096941 |     12096939 |     12096939 |xxxxxxxxxxxxx |xxxxxxxxxxxxx |xxxxxxxxxxxxx |xxxxxxxxxxxxx |     24462271 |     24462267 |     24462267 |xxxxxxxxxxxxx |xxxxxxxxxxxxx |xxxxxxxxxxxxx |xxxxxxxxxxxxx |     61750987 |     61751010 |     61751012 |xxxxxxxxxxxxx |xxxxxxxxxxxxx |xxxxxxxxxxxxx |xxxxxxxxxxxxx |    133712246 |    133712290 |    133712292 |
bpred_bimod.misses                           21269 |        21272 |        21273 |xxxxxxxxxxxxx |xxxxxxxxxxxxx |xxxxxxxxxxxxx |xxxxxxxxxxxxx |        47388 |        47391 |        47390 |xxxxxxxxxxxxx |xxxxxxxxxxxxx |xxxxxxxxxxxxx |xxxxxxxxxxxxx |       101443 |       101444 |       101443 |xxxxxxxxxxxxx |xxxxxxxxxxxxx |xxxxxxxxxxxxx |xxxxxxxxxxxxx |       213497 |       213501 |       213501 |xxxxxxxxxxxxx |xxxxxxxxxxxxx |xxxxxxxxxxxxx |xxxxxxxxxxxxx |       459573 |       459573 |       459573 |xxxxxxxxxxxxx |xxxxxxxxxxxxx |xxxxxxxxxxxxx |xxxxxxxxxxxxx |       949496 |       949497 |       949497 |xxxxxxxxxxxxx |xxxxxxxxxxxxx |xxxxxxxxxxxxx |xxxxxxxxxxxxx |      2035703 |      2035705 |      2035705 |xxxxxxxxxxxxx |xxxxxxxxxxxxx |xxxxxxxxxxxxx |xxxxxxxxxxxxx |      4171629 |      4171631 |      4171631 |xxxxxxxxxxxxx |xxxxxxxxxxxxx |xxxxxxxxxxxxx |xxxxxxxxxxxxx |      8960238 |      8960242 |      8960242 |xxxxxxxxxxxxx |xxxxxxxxxxxxx |xxxxxxxxxxxxx |xxxxxxxxxxxxx |     21765994 |     21765971 |     21765969 |xxxxxxxxxxxxx |xxxxxxxxxxxxx |xxxxxxxxxxxxx |xxxxxxxxxxxxx |     43971014 |     43970970 |     43970968 |
bpred_bimod.jr_hits                             65 |           65 |           65 |xxxxxxxxxxxxx |xxxxxxxxxxxxx |xxxxxxxxxxxxx |xxxxxxxxxxxxx |           65 |           65 |           65 |xxxxxxxxxxxxx |xxxxxxxxxxxxx |xxxxxxxxxxxxx |xxxxxxxxxxxxx |           65 |           65 |           65 |xxxxxxxxxxxxx |xxxxxxxxxxxxx |xxxxxxxxxxxxx |xxxxxxxxxxxxx |           65 |           65 |           65 |xxxxxxxxxxxxx |xxxxxxxxxxxxx |xxxxxxxxxxxxx |xxxxxxxxxxxxx |           65 |           65 |           65 |xxxxxxxxxxxxx |xxxxxxxxxxxxx |xxxxxxxxxxxxx |xxxxxxxxxxxxx |           65 |           65 |           65 |xxxxxxxxxxxxx |xxxxxxxxxxxxx |xxxxxxxxxxxxx |xxxxxxxxxxxxx |           65 |           65 |           65 |xxxxxxxxxxxxx |xxxxxxxxxxxxx |xxxxxxxxxxxxx |xxxxxxxxxxxxx |           65 |           65 |           65 |xxxxxxxxxxxxx |xxxxxxxxxxxxx |xxxxxxxxxxxxx |xxxxxxxxxxxxx |           65 |           65 |           65 |xxxxxxxxxxxxx |xxxxxxxxxxxxx |xxxxxxxxxxxxx |xxxxxxxxxxxxx |          110 |          110 |          110 |xxxxxxxxxxxxx |xxxxxxxxxxxxx |xxxxxxxxxxxxx |xxxxxxxxxxxxx |          122 |          122 |          122 |
bpred_bimod.jr_seen                             65 |           65 |           65 |xxxxxxxxxxxxx |xxxxxxxxxxxxx |xxxxxxxxxxxxx |xxxxxxxxxxxxx |           65 |           65 |           65 |xxxxxxxxxxxxx |xxxxxxxxxxxxx |xxxxxxxxxxxxx |xxxxxxxxxxxxx |           65 |           65 |           65 |xxxxxxxxxxxxx |xxxxxxxxxxxxx |xxxxxxxxxxxxx |xxxxxxxxxxxxx |           65 |           65 |           65 |xxxxxxxxxxxxx |xxxxxxxxxxxxx |xxxxxxxxxxxxx |xxxxxxxxxxxxx |           65 |           65 |           65 |xxxxxxxxxxxxx |xxxxxxxxxxxxx |xxxxxxxxxxxxx |xxxxxxxxxxxxx |           65 |           65 |           65 |xxxxxxxxxxxxx |xxxxxxxxxxxxx |xxxxxxxxxxxxx |xxxxxxxxxxxxx |           65 |           65 |           65 |xxxxxxxxxxxxx |xxxxxxxxxxxxx |xxxxxxxxxxxxx |xxxxxxxxxxxxx |           65 |           65 |           65 |xxxxxxxxxxxxx |xxxxxxxxxxxxx |xxxxxxxxxxxxx |xxxxxxxxxxxxx |           65 |           65 |           65 |xxxxxxxxxxxxx |xxxxxxxxxxxxx |xxxxxxxxxxxxx |xxxxxxxxxxxxx |          111 |          111 |          111 |xxxxxxxxxxxxx |xxxxxxxxxxxxx |xxxxxxxxxxxxx |xxxxxxxxxxxxx |          123 |          123 |          123 |
bpred_bimod.jr_non_ras_hits.PP                   0 |            0 |            0 |xxxxxxxxxxxxx |xxxxxxxxxxxxx |xxxxxxxxxxxxx |xxxxxxxxxxxxx |            0 |            0 |            0 |xxxxxxxxxxxxx |xxxxxxxxxxxxx |xxxxxxxxxxxxx |xxxxxxxxxxxxx |            0 |            0 |            0 |xxxxxxxxxxxxx |xxxxxxxxxxxxx |xxxxxxxxxxxxx |xxxxxxxxxxxxx |            0 |            0 |            0 |xxxxxxxxxxxxx |xxxxxxxxxxxxx |xxxxxxxxxxxxx |xxxxxxxxxxxxx |            0 |            0 |            0 |xxxxxxxxxxxxx |xxxxxxxxxxxxx |xxxxxxxxxxxxx |xxxxxxxxxxxxx |            0 |            0 |            0 |xxxxxxxxxxxxx |xxxxxxxxxxxxx |xxxxxxxxxxxxx |xxxxxxxxxxxxx |            0 |            0 |            0 |xxxxxxxxxxxxx |xxxxxxxxxxxxx |xxxxxxxxxxxxx |xxxxxxxxxxxxx |            0 |            0 |            0 |xxxxxxxxxxxxx |xxxxxxxxxxxxx |xxxxxxxxxxxxx |xxxxxxxxxxxxx |            0 |            0 |            0 |xxxxxxxxxxxxx |xxxxxxxxxxxxx |xxxxxxxxxxxxx |xxxxxxxxxxxxx |            0 |            0 |            0 |xxxxxxxxxxxxx |xxxxxxxxxxxxx |xxxxxxxxxxxxx |xxxxxxxxxxxxx |            0 |            0 |            0 |
bpred_bimod.jr_non_ras_seen.PP                   0 |            0 |            0 |xxxxxxxxxxxxx |xxxxxxxxxxxxx |xxxxxxxxxxxxx |xxxxxxxxxxxxx |            0 |            0 |            0 |xxxxxxxxxxxxx |xxxxxxxxxxxxx |xxxxxxxxxxxxx |xxxxxxxxxxxxx |            0 |            0 |            0 |xxxxxxxxxxxxx |xxxxxxxxxxxxx |xxxxxxxxxxxxx |xxxxxxxxxxxxx |            0 |            0 |            0 |xxxxxxxxxxxxx |xxxxxxxxxxxxx |xxxxxxxxxxxxx |xxxxxxxxxxxxx |            0 |            0 |            0 |xxxxxxxxxxxxx |xxxxxxxxxxxxx |xxxxxxxxxxxxx |xxxxxxxxxxxxx |            0 |            0 |            0 |xxxxxxxxxxxxx |xxxxxxxxxxxxx |xxxxxxxxxxxxx |xxxxxxxxxxxxx |            0 |            0 |            0 |xxxxxxxxxxxxx |xxxxxxxxxxxxx |xxxxxxxxxxxxx |xxxxxxxxxxxxx |            0 |            0 |            0 |xxxxxxxxxxxxx |xxxxxxxxxxxxx |xxxxxxxxxxxxx |xxxxxxxxxxxxx |            0 |            0 |            0 |xxxxxxxxxxxxx |xxxxxxxxxxxxx |xxxxxxxxxxxxx |xxxxxxxxxxxxx |            1 |            1 |            1 |xxxxxxxxxxxxx |xxxxxxxxxxxxx |xxxxxxxxxxxxx |xxxxxxxxxxxxx |            1 |            1 |            1 |
bpred_bimod.bpred_addr_rate                 0.7203 |       0.7203 |       0.7203 |xxxxxxxxxxxxx |xxxxxxxxxxxxx |xxxxxxxxxxxxx |xxxxxxxxxxxxx |       0.7088 |       0.7088 |       0.7088 |xxxxxxxxxxxxx |xxxxxxxxxxxxx |xxxxxxxxxxxxx |xxxxxxxxxxxxx |       0.7109 |       0.7109 |       0.7109 |xxxxxxxxxxxxx |xxxxxxxxxxxxx |xxxxxxxxxxxxx |xxxxxxxxxxxxx |       0.7208 |       0.7208 |       0.7208 |xxxxxxxxxxxxx |xxxxxxxxxxxxx |xxxxxxxxxxxxx |xxxxxxxxxxxxx |       0.7203 |       0.7203 |       0.7203 |xxxxxxxxxxxxx |xxxxxxxxxxxxx |xxxxxxxxxxxxx |xxxxxxxxxxxxx |       0.7289 |       0.7289 |       0.7289 |xxxxxxxxxxxxx |xxxxxxxxxxxxx |xxxxxxxxxxxxx |xxxxxxxxxxxxx |       0.7252 |       0.7252 |       0.7252 |xxxxxxxxxxxxx |xxxxxxxxxxxxx |xxxxxxxxxxxxx |xxxxxxxxxxxxx |       0.7436 |       0.7436 |       0.7436 |xxxxxxxxxxxxx |xxxxxxxxxxxxx |xxxxxxxxxxxxx |xxxxxxxxxxxxx |       0.7319 |       0.7319 |       0.7319 |xxxxxxxxxxxxx |xxxxxxxxxxxxx |xxxxxxxxxxxxx |xxxxxxxxxxxxx |       0.7394 |       0.7394 |       0.7394 |xxxxxxxxxxxxx |xxxxxxxxxxxxx |xxxxxxxxxxxxx |xxxxxxxxxxxxx |       0.7525 |       0.7525 |       0.7525 |
bpred_bimod.bpred_dir_rate                  0.7219 |       0.7218 |       0.7218 |xxxxxxxxxxxxx |xxxxxxxxxxxxx |xxxxxxxxxxxxx |xxxxxxxxxxxxx |       0.7095 |       0.7094 |       0.7094 |xxxxxxxxxxxxx |xxxxxxxxxxxxx |xxxxxxxxxxxxx |xxxxxxxxxxxxx |       0.7112 |       0.7112 |       0.7112 |xxxxxxxxxxxxx |xxxxxxxxxxxxx |xxxxxxxxxxxxx |xxxxxxxxxxxxx |       0.7210 |       0.7210 |       0.7210 |xxxxxxxxxxxxx |xxxxxxxxxxxxx |xxxxxxxxxxxxx |xxxxxxxxxxxxx |       0.7204 |       0.7204 |       0.7204 |xxxxxxxxxxxxx |xxxxxxxxxxxxx |xxxxxxxxxxxxx |xxxxxxxxxxxxx |       0.7289 |       0.7289 |       0.7289 |xxxxxxxxxxxxx |xxxxxxxxxxxxx |xxxxxxxxxxxxx |xxxxxxxxxxxxx |       0.7253 |       0.7253 |       0.7253 |xxxxxxxxxxxxx |xxxxxxxxxxxxx |xxxxxxxxxxxxx |xxxxxxxxxxxxx |       0.7436 |       0.7436 |       0.7436 |xxxxxxxxxxxxx |xxxxxxxxxxxxx |xxxxxxxxxxxxx |xxxxxxxxxxxxx |       0.7319 |       0.7319 |       0.7319 |xxxxxxxxxxxxx |xxxxxxxxxxxxx |xxxxxxxxxxxxx |xxxxxxxxxxxxx |       0.7394 |       0.7394 |       0.7394 |xxxxxxxxxxxxx |xxxxxxxxxxxxx |xxxxxxxxxxxxx |xxxxxxxxxxxxx |       0.7525 |       0.7525 |       0.7525 |
bpred_bimod.bpred_jr_rate                   1.0000 |       1.0000 |       1.0000 |xxxxxxxxxxxxx |xxxxxxxxxxxxx |xxxxxxxxxxxxx |xxxxxxxxxxxxx |       1.0000 |       1.0000 |       1.0000 |xxxxxxxxxxxxx |xxxxxxxxxxxxx |xxxxxxxxxxxxx |xxxxxxxxxxxxx |       1.0000 |       1.0000 |       1.0000 |xxxxxxxxxxxxx |xxxxxxxxxxxxx |xxxxxxxxxxxxx |xxxxxxxxxxxxx |       1.0000 |       1.0000 |       1.0000 |xxxxxxxxxxxxx |xxxxxxxxxxxxx |xxxxxxxxxxxxx |xxxxxxxxxxxxx |       1.0000 |       1.0000 |       1.0000 |xxxxxxxxxxxxx |xxxxxxxxxxxxx |xxxxxxxxxxxxx |xxxxxxxxxxxxx |       1.0000 |       1.0000 |       1.0000 |xxxxxxxxxxxxx |xxxxxxxxxxxxx |xxxxxxxxxxxxx |xxxxxxxxxxxxx |       1.0000 |       1.0000 |       1.0000 |xxxxxxxxxxxxx |xxxxxxxxxxxxx |xxxxxxxxxxxxx |xxxxxxxxxxxxx |       1.0000 |       1.0000 |       1.0000 |xxxxxxxxxxxxx |xxxxxxxxxxxxx |xxxxxxxxxxxxx |xxxxxxxxxxxxx |       1.0000 |       1.0000 |       1.0000 |xxxxxxxxxxxxx |xxxxxxxxxxxxx |xxxxxxxxxxxxx |xxxxxxxxxxxxx |       0.9910 |       0.9910 |       0.9910 |xxxxxxxxxxxxx |xxxxxxxxxxxxx |xxxxxxxxxxxxx |xxxxxxxxxxxxx |       0.9919 |       0.9919 |       0.9919 |
bpred_bimod.bpred_jr_non_ras_rate.PP       <error: |      <error: |      <error: |xxxxxxxxxxxxx |xxxxxxxxxxxxx |xxxxxxxxxxxxx |xxxxxxxxxxxxx |      <error: |      <error: |      <error: |xxxxxxxxxxxxx |xxxxxxxxxxxxx |xxxxxxxxxxxxx |xxxxxxxxxxxxx |      <error: |      <error: |      <error: |xxxxxxxxxxxxx |xxxxxxxxxxxxx |xxxxxxxxxxxxx |xxxxxxxxxxxxx |      <error: |      <error: |      <error: |xxxxxxxxxxxxx |xxxxxxxxxxxxx |xxxxxxxxxxxxx |xxxxxxxxxxxxx |      <error: |      <error: |      <error: |xxxxxxxxxxxxx |xxxxxxxxxxxxx |xxxxxxxxxxxxx |xxxxxxxxxxxxx |      <error: |      <error: |      <error: |xxxxxxxxxxxxx |xxxxxxxxxxxxx |xxxxxxxxxxxxx |xxxxxxxxxxxxx |      <error: |      <error: |      <error: |xxxxxxxxxxxxx |xxxxxxxxxxxxx |xxxxxxxxxxxxx |xxxxxxxxxxxxx |      <error: |      <error: |      <error: |xxxxxxxxxxxxx |xxxxxxxxxxxxx |xxxxxxxxxxxxx |xxxxxxxxxxxxx |      <error: |      <error: |      <error: |xxxxxxxxxxxxx |xxxxxxxxxxxxx |xxxxxxxxxxxxx |xxxxxxxxxxxxx |       0.0000 |       0.0000 |       0.0000 |xxxxxxxxxxxxx |xxxxxxxxxxxxx |xxxxxxxxxxxxx |xxxxxxxxxxxxx |       0.0000 |       0.0000 |       0.0000 |
bpred_bimod.retstack_pushes                     67 |           67 |           67 |xxxxxxxxxxxxx |xxxxxxxxxxxxx |xxxxxxxxxxxxx |xxxxxxxxxxxxx |           67 |           67 |           67 |xxxxxxxxxxxxx |xxxxxxxxxxxxx |xxxxxxxxxxxxx |xxxxxxxxxxxxx |           67 |           67 |           67 |xxxxxxxxxxxxx |xxxxxxxxxxxxx |xxxxxxxxxxxxx |xxxxxxxxxxxxx |           67 |           67 |           67 |xxxxxxxxxxxxx |xxxxxxxxxxxxx |xxxxxxxxxxxxx |xxxxxxxxxxxxx |           67 |           67 |           67 |xxxxxxxxxxxxx |xxxxxxxxxxxxx |xxxxxxxxxxxxx |xxxxxxxxxxxxx |           67 |           67 |           67 |xxxxxxxxxxxxx |xxxxxxxxxxxxx |xxxxxxxxxxxxx |xxxxxxxxxxxxx |           67 |           67 |           67 |xxxxxxxxxxxxx |xxxxxxxxxxxxx |xxxxxxxxxxxxx |xxxxxxxxxxxxx |           67 |           67 |           67 |xxxxxxxxxxxxx |xxxxxxxxxxxxx |xxxxxxxxxxxxx |xxxxxxxxxxxxx |           67 |           67 |           67 |xxxxxxxxxxxxx |xxxxxxxxxxxxx |xxxxxxxxxxxxx |xxxxxxxxxxxxx |          112 |          112 |          112 |xxxxxxxxxxxxx |xxxxxxxxxxxxx |xxxxxxxxxxxxx |xxxxxxxxxxxxx |          124 |          124 |          124 |
bpred_bimod.retstack_pops                       65 |           65 |           65 |xxxxxxxxxxxxx |xxxxxxxxxxxxx |xxxxxxxxxxxxx |xxxxxxxxxxxxx |           65 |           65 |           65 |xxxxxxxxxxxxx |xxxxxxxxxxxxx |xxxxxxxxxxxxx |xxxxxxxxxxxxx |           65 |           65 |           65 |xxxxxxxxxxxxx |xxxxxxxxxxxxx |xxxxxxxxxxxxx |xxxxxxxxxxxxx |           65 |           65 |           65 |xxxxxxxxxxxxx |xxxxxxxxxxxxx |xxxxxxxxxxxxx |xxxxxxxxxxxxx |           65 |           65 |           65 |xxxxxxxxxxxxx |xxxxxxxxxxxxx |xxxxxxxxxxxxx |xxxxxxxxxxxxx |           65 |           65 |           65 |xxxxxxxxxxxxx |xxxxxxxxxxxxx |xxxxxxxxxxxxx |xxxxxxxxxxxxx |           65 |           65 |           65 |xxxxxxxxxxxxx |xxxxxxxxxxxxx |xxxxxxxxxxxxx |xxxxxxxxxxxxx |           65 |           65 |           65 |xxxxxxxxxxxxx |xxxxxxxxxxxxx |xxxxxxxxxxxxx |xxxxxxxxxxxxx |           65 |           65 |           65 |xxxxxxxxxxxxx |xxxxxxxxxxxxx |xxxxxxxxxxxxx |xxxxxxxxxxxxx |          110 |          110 |          110 |xxxxxxxxxxxxx |xxxxxxxxxxxxx |xxxxxxxxxxxxx |xxxxxxxxxxxxx |          122 |          122 |          122 |
bpred_bimod.used_ras.PP                         65 |           65 |           65 |xxxxxxxxxxxxx |xxxxxxxxxxxxx |xxxxxxxxxxxxx |xxxxxxxxxxxxx |           65 |           65 |           65 |xxxxxxxxxxxxx |xxxxxxxxxxxxx |xxxxxxxxxxxxx |xxxxxxxxxxxxx |           65 |           65 |           65 |xxxxxxxxxxxxx |xxxxxxxxxxxxx |xxxxxxxxxxxxx |xxxxxxxxxxxxx |           65 |           65 |           65 |xxxxxxxxxxxxx |xxxxxxxxxxxxx |xxxxxxxxxxxxx |xxxxxxxxxxxxx |           65 |           65 |           65 |xxxxxxxxxxxxx |xxxxxxxxxxxxx |xxxxxxxxxxxxx |xxxxxxxxxxxxx |           65 |           65 |           65 |xxxxxxxxxxxxx |xxxxxxxxxxxxx |xxxxxxxxxxxxx |xxxxxxxxxxxxx |           65 |           65 |           65 |xxxxxxxxxxxxx |xxxxxxxxxxxxx |xxxxxxxxxxxxx |xxxxxxxxxxxxx |           65 |           65 |           65 |xxxxxxxxxxxxx |xxxxxxxxxxxxx |xxxxxxxxxxxxx |xxxxxxxxxxxxx |           65 |           65 |           65 |xxxxxxxxxxxxx |xxxxxxxxxxxxx |xxxxxxxxxxxxx |xxxxxxxxxxxxx |          110 |          110 |          110 |xxxxxxxxxxxxx |xxxxxxxxxxxxx |xxxxxxxxxxxxx |xxxxxxxxxxxxx |          122 |          122 |          122 |
bpred_bimod.ras_hits.PP                         65 |           65 |           65 |xxxxxxxxxxxxx |xxxxxxxxxxxxx |xxxxxxxxxxxxx |xxxxxxxxxxxxx |           65 |           65 |           65 |xxxxxxxxxxxxx |xxxxxxxxxxxxx |xxxxxxxxxxxxx |xxxxxxxxxxxxx |           65 |           65 |           65 |xxxxxxxxxxxxx |xxxxxxxxxxxxx |xxxxxxxxxxxxx |xxxxxxxxxxxxx |           65 |           65 |           65 |xxxxxxxxxxxxx |xxxxxxxxxxxxx |xxxxxxxxxxxxx |xxxxxxxxxxxxx |           65 |           65 |           65 |xxxxxxxxxxxxx |xxxxxxxxxxxxx |xxxxxxxxxxxxx |xxxxxxxxxxxxx |           65 |           65 |           65 |xxxxxxxxxxxxx |xxxxxxxxxxxxx |xxxxxxxxxxxxx |xxxxxxxxxxxxx |           65 |           65 |           65 |xxxxxxxxxxxxx |xxxxxxxxxxxxx |xxxxxxxxxxxxx |xxxxxxxxxxxxx |           65 |           65 |           65 |xxxxxxxxxxxxx |xxxxxxxxxxxxx |xxxxxxxxxxxxx |xxxxxxxxxxxxx |           65 |           65 |           65 |xxxxxxxxxxxxx |xxxxxxxxxxxxx |xxxxxxxxxxxxx |xxxxxxxxxxxxx |          110 |          110 |          110 |xxxxxxxxxxxxx |xxxxxxxxxxxxx |xxxxxxxxxxxxx |xxxxxxxxxxxxx |          122 |          122 |          122 |
bpred_bimod.ras_rate.PP                     1.0000 |       1.0000 |       1.0000 |xxxxxxxxxxxxx |xxxxxxxxxxxxx |xxxxxxxxxxxxx |xxxxxxxxxxxxx |       1.0000 |       1.0000 |       1.0000 |xxxxxxxxxxxxx |xxxxxxxxxxxxx |xxxxxxxxxxxxx |xxxxxxxxxxxxx |       1.0000 |       1.0000 |       1.0000 |xxxxxxxxxxxxx |xxxxxxxxxxxxx |xxxxxxxxxxxxx |xxxxxxxxxxxxx |       1.0000 |       1.0000 |       1.0000 |xxxxxxxxxxxxx |xxxxxxxxxxxxx |xxxxxxxxxxxxx |xxxxxxxxxxxxx |       1.0000 |       1.0000 |       1.0000 |xxxxxxxxxxxxx |xxxxxxxxxxxxx |xxxxxxxxxxxxx |xxxxxxxxxxxxx |       1.0000 |       1.0000 |       1.0000 |xxxxxxxxxxxxx |xxxxxxxxxxxxx |xxxxxxxxxxxxx |xxxxxxxxxxxxx |       1.0000 |       1.0000 |       1.0000 |xxxxxxxxxxxxx |xxxxxxxxxxxxx |xxxxxxxxxxxxx |xxxxxxxxxxxxx |       1.0000 |       1.0000 |       1.0000 |xxxxxxxxxxxxx |xxxxxxxxxxxxx |xxxxxxxxxxxxx |xxxxxxxxxxxxx |       1.0000 |       1.0000 |       1.0000 |xxxxxxxxxxxxx |xxxxxxxxxxxxx |xxxxxxxxxxxxx |xxxxxxxxxxxxx |       1.0000 |       1.0000 |       1.0000 |xxxxxxxxxxxxx |xxxxxxxxxxxxx |xxxxxxxxxxxxx |xxxxxxxxxxxxx |       1.0000 |       1.0000 |       1.0000 |
bpred_2lev.lookups                   xxxxxxxxxxxxx |xxxxxxxxxxxxx |xxxxxxxxxxxxx |        76468 |        76468 |        76468 |        76468 |xxxxxxxxxxxxx |xxxxxxxxxxxxx |xxxxxxxxxxxxx |       163103 |       163103 |       163103 |       163103 |xxxxxxxxxxxxx |xxxxxxxxxxxxx |xxxxxxxxxxxxx |       351290 |       351290 |       351290 |       351290 |xxxxxxxxxxxxx |xxxxxxxxxxxxx |xxxxxxxxxxxxx |       765134 |       765134 |       765134 |       765134 |xxxxxxxxxxxxx |xxxxxxxxxxxxx |xxxxxxxxxxxxx |      1643419 |      1643419 |      1643419 |      1643419 |xxxxxxxxxxxxx |xxxxxxxxxxxxx |xxxxxxxxxxxxx |      3502815 |      3502815 |      3502815 |      3502815 |xxxxxxxxxxxxx |xxxxxxxxxxxxx |xxxxxxxxxxxxx |      7409314 |      7409314 |      7409314 |      7409314 |xxxxxxxxxxxxx |xxxxxxxxxxxxx |xxxxxxxxxxxxx |     16268570 |     16268570 |     16268570 |     16268570 |xxxxxxxxxxxxx |xxxxxxxxxxxxx |xxxxxxxxxxxxx |     33422509 |     33422509 |     33422509 |     33422509 |xxxxxxxxxxxxx |xxxxxxxxxxxxx |xxxxxxxxxxxxx |     83516981 |     83516981 |     83516981 |     83516981 |xxxxxxxxxxxxx |xxxxxxxxxxxxx |xxxxxxxxxxxxx |    177683260 |    177683260 |    177683260 |    177683260 |
[...]
bpred_2lev.retstack_pushes           xxxxxxxxxxxxx |xxxxxxxxxxxxx |xxxxxxxxxxxxx |           67 |           67 |           67 |           67 |xxxxxxxxxxxxx |xxxxxxxxxxxxx |xxxxxxxxxxxxx |           67 |           67 |           67 |           67 |xxxxxxxxxxxxx |xxxxxxxxxxxxx |xxxxxxxxxxxxx |           67 |           67 |           67 |           67 |xxxxxxxxxxxxx |xxxxxxxxxxxxx |xxxxxxxxxxxxx |           67 |           67 |           67 |           67 |xxxxxxxxxxxxx |xxxxxxxxxxxxx |xxxxxxxxxxxxx |           67 |           67 |           67 |           67 |xxxxxxxxxxxxx |xxxxxxxxxxxxx |xxxxxxxxxxxxx |           67 |           67 |           67 |           67 |xxxxxxxxxxxxx |xxxxxxxxxxxxx |xxxxxxxxxxxxx |           67 |           67 |           67 |           67 |xxxxxxxxxxxxx |xxxxxxxxxxxxx |xxxxxxxxxxxxx |           67 |           67 |           67 |           67 |xxxxxxxxxxxxx |xxxxxxxxxxxxx |xxxxxxxxxxxxx |           67 |           67 |           67 |           67 |xxxxxxxxxxxxx |xxxxxxxxxxxxx |xxxxxxxxxxxxx |          112 |          112 |          112 |          112 |xxxxxxxxxxxxx |xxxxxxxxxxxxx |xxxxxxxxxxxxx |          124 |          124 |          124 |          124 |
bpred_2lev.retstack_pops             xxxxxxxxxxxxx |xxxxxxxxxxxxx |xxxxxxxxxxxxx |           65 |           65 |           65 |           65 |xxxxxxxxxxxxx |xxxxxxxxxxxxx |xxxxxxxxxxxxx |           65 |           65 |           65 |           65 |xxxxxxxxxxxxx |xxxxxxxxxxxxx |xxxxxxxxxxxxx |           65 |           65 |           65 |           65 |xxxxxxxxxxxxx |xxxxxxxxxxxxx |xxxxxxxxxxxxx |           65 |           65 |           65 |           65 |xxxxxxxxxxxxx |xxxxxxxxxxxxx |xxxxxxxxxxxxx |           65 |           65 |           65 |           65 |xxxxxxxxxxxxx |xxxxxxxxxxxxx |xxxxxxxxxxxxx |           65 |           65 |           65 |           65 |xxxxxxxxxxxxx |xxxxxxxxxxxxx |xxxxxxxxxxxxx |           65 |           65 |           65 |           65 |xxxxxxxxxxxxx |xxxxxxxxxxxxx |xxxxxxxxxxxxx |           65 |           65 |           65 |           65 |xxxxxxxxxxxxx |xxxxxxxxxxxxx |xxxxxxxxxxxxx |           65 |           65 |           65 |           65 |xxxxxxxxxxxxx |xxxxxxxxxxxxx |xxxxxxxxxxxxx |          110 |          110 |          110 |          110 |xxxxxxxxxxxxx |xxxxxxxxxxxxx |xxxxxxxxxxxxx |          122 |          122 |          122 |          122 |
bpred_2lev.used_ras.PP               xxxxxxxxxxxxx |xxxxxxxxxxxxx |xxxxxxxxxxxxx |           65 |           65 |           65 |           65 |xxxxxxxxxxxxx |xxxxxxxxxxxxx |xxxxxxxxxxxxx |           65 |           65 |           65 |           65 |xxxxxxxxxxxxx |xxxxxxxxxxxxx |xxxxxxxxxxxxx |           65 |           65 |           65 |           65 |xxxxxxxxxxxxx |xxxxxxxxxxxxx |xxxxxxxxxxxxx |           65 |           65 |           65 |           65 |xxxxxxxxxxxxx |xxxxxxxxxxxxx |xxxxxxxxxxxxx |           65 |           65 |           65 |           65 |xxxxxxxxxxxxx |xxxxxxxxxxxxx |xxxxxxxxxxxxx |           65 |           65 |           65 |           65 |xxxxxxxxxxxxx |xxxxxxxxxxxxx |xxxxxxxxxxxxx |           65 |           65 |           65 |           65 |xxxxxxxxxxxxx |xxxxxxxxxxxxx |xxxxxxxxxxxxx |           65 |           65 |           65 |           65 |xxxxxxxxxxxxx |xxxxxxxxxxxxx |xxxxxxxxxxxxx |           65 |           65 |           65 |           65 |xxxxxxxxxxxxx |xxxxxxxxxxxxx |xxxxxxxxxxxxx |          110 |          110 |          110 |          110 |xxxxxxxxxxxxx |xxxxxxxxxxxxx |xxxxxxxxxxxxx |          122 |          122 |          122 |          122 |
bpred_2lev.ras_hits.PP               xxxxxxxxxxxxx |xxxxxxxxxxxxx |xxxxxxxxxxxxx |           65 |           65 |           65 |           65 |xxxxxxxxxxxxx |xxxxxxxxxxxxx |xxxxxxxxxxxxx |           65 |           65 |           65 |           65 |xxxxxxxxxxxxx |xxxxxxxxxxxxx |xxxxxxxxxxxxx |           65 |           65 |           65 |           65 |xxxxxxxxxxxxx |xxxxxxxxxxxxx |xxxxxxxxxxxxx |           65 |           65 |           65 |           65 |xxxxxxxxxxxxx |xxxxxxxxxxxxx |xxxxxxxxxxxxx |           65 |           65 |           65 |           65 |xxxxxxxxxxxxx |xxxxxxxxxxxxx |xxxxxxxxxxxxx |           65 |           65 |           65 |           65 |xxxxxxxxxxxxx |xxxxxxxxxxxxx |xxxxxxxxxxxxx |           65 |           65 |           65 |           65 |xxxxxxxxxxxxx |xxxxxxxxxxxxx |xxxxxxxxxxxxx |           65 |           65 |           65 |           65 |xxxxxxxxxxxxx |xxxxxxxxxxxxx |xxxxxxxxxxxxx |           65 |           65 |           65 |           65 |xxxxxxxxxxxxx |xxxxxxxxxxxxx |xxxxxxxxxxxxx |          110 |          110 |          110 |          110 |xxxxxxxxxxxxx |xxxxxxxxxxxxx |xxxxxxxxxxxxx |          122 |          122 |          122 |          122 |
bpred_2lev.ras_rate.PP               xxxxxxxxxxxxx |xxxxxxxxxxxxx |xxxxxxxxxxxxx |       1.0000 |       1.0000 |       1.0000 |       1.0000 |xxxxxxxxxxxxx |xxxxxxxxxxxxx |xxxxxxxxxxxxx |       1.0000 |       1.0000 |       1.0000 |       1.0000 |xxxxxxxxxxxxx |xxxxxxxxxxxxx |xxxxxxxxxxxxx |       1.0000 |       1.0000 |       1.0000 |       1.0000 |xxxxxxxxxxxxx |xxxxxxxxxxxxx |xxxxxxxxxxxxx |       1.0000 |       1.0000 |       1.0000 |       1.0000 |xxxxxxxxxxxxx |xxxxxxxxxxxxx |xxxxxxxxxxxxx |       1.0000 |       1.0000 |       1.0000 |       1.0000 |xxxxxxxxxxxxx |xxxxxxxxxxxxx |xxxxxxxxxxxxx |       1.0000 |       1.0000 |       1.0000 |       1.0000 |xxxxxxxxxxxxx |xxxxxxxxxxxxx |xxxxxxxxxxxxx |       1.0000 |       1.0000 |       1.0000 |       1.0000 |xxxxxxxxxxxxx |xxxxxxxxxxxxx |xxxxxxxxxxxxx |       1.0000 |       1.0000 |       1.0000 |       1.0000 |xxxxxxxxxxxxx |xxxxxxxxxxxxx |xxxxxxxxxxxxx |       1.0000 |       1.0000 |       1.0000 |       1.0000 |xxxxxxxxxxxxx |xxxxxxxxxxxxx |xxxxxxxxxxxxx |       1.0000 |       1.0000 |       1.0000 |       1.0000 |xxxxxxxxxxxxx |xxxxxxxxxxxxx |xxxxxxxxxxxxx |       1.0000 |       1.0000 |       1.0000 |       1.0000 |

Command list: 
	sslittle-na-sstrix-gcc -Wall -O3 -funroll-loops -finline-functions  -DRANDOM_SIZE=4096 -DOFFSET=9 -DSORT=multi_quicksort sorts/multi_quicksort1529313152.c simpleMain.c -o multi_quicksort1281932961
	sim-cache -cache:dl1 dl1:256:32:1:l -cache:dl2 dl2:131072:32:1:l -cache:il1 il1:256:32:1:l -cache:il2 dl2 multi_quicksort1281932961
	sim-cache -cache:dl1 dl1:256:32:1:l -cache:dl2 dl2:65536:32:1:l -cache:il1 il1:256:32:1:l -cache:il2 dl2 multi_quicksort1281932961
	sim-cache -cache:dl1 dl1:1:32:256:l -cache:dl2 dl2:1:32:131072:l -cache:il1 il1:1:32:256:l -cache:il2 dl2 multi_quicksort1281932961
	sim-cache -cache:dl1 dl1:1:32:256:l -cache:dl2 dl2:1:32:65536:l -cache:il1 il1:1:32:256:l -cache:il2 dl2 multi_quicksort1281932961
	sim-bpred -bpred bimod -bpred:bimod 512 multi_quicksort1281932961
	sim-bpred -bpred bimod -bpred:bimod 1024 multi_quicksort1281932961
	sim-bpred -bpred bimod -bpred:bimod 2048 multi_quicksort1281932961
	sim-bpred -bpred 2lev -bpred:2lev 1 512 10 1 multi_quicksort1281932961
	sim-bpred -bpred 2lev -bpred:2lev 1 1024 10 1 multi_quicksort1281932961
	sim-bpred -bpred 2lev -bpred:2lev 1 2048 10 1 multi_quicksort1281932961
	sim-bpred -bpred 2lev -bpred:2lev 1 4096 10 1 multi_quicksort1281932961
	sslittle-na-sstrix-gcc -Wall -O3 -funroll-loops -finline-functions  -DRANDOM_SIZE=8192 -DOFFSET=9 -DSORT=multi_quicksort sorts/multi_quicksort1529313152.c simpleMain.c -o multi_quicksort1281932961
	sim-cache -cache:dl1 dl1:256:32:1:l -cache:dl2 dl2:131072:32:1:l -cache:il1 il1:256:32:1:l -cache:il2 dl2 multi_quicksort1281932961
	sim-cache -cache:dl1 dl1:256:32:1:l -cache:dl2 dl2:65536:32:1:l -cache:il1 il1:256:32:1:l -cache:il2 dl2 multi_quicksort1281932961
	sim-cache -cache:dl1 dl1:1:32:256:l -cache:dl2 dl2:1:32:131072:l -cache:il1 il1:1:32:256:l -cache:il2 dl2 multi_quicksort1281932961
	sim-cache -cache:dl1 dl1:1:32:256:l -cache:dl2 dl2:1:32:65536:l -cache:il1 il1:1:32:256:l -cache:il2 dl2 multi_quicksort1281932961
	sim-bpred -bpred bimod -bpred:bimod 512 multi_quicksort1281932961
	sim-bpred -bpred bimod -bpred:bimod 1024 multi_quicksort1281932961
	sim-bpred -bpred bimod -bpred:bimod 2048 multi_quicksort1281932961
	sim-bpred -bpred 2lev -bpred:2lev 1 512 10 1 multi_quicksort1281932961
	sim-bpred -bpred 2lev -bpred:2lev 1 1024 10 1 multi_quicksort1281932961
	sim-bpred -bpred 2lev -bpred:2lev 1 2048 10 1 multi_quicksort1281932961
	sim-bpred -bpred 2lev -bpred:2lev 1 4096 10 1 multi_quicksort1281932961
	sslittle-na-sstrix-gcc -Wall -O3 -funroll-loops -finline-functions  -DRANDOM_SIZE=16384 -DOFFSET=9 -DSORT=multi_quicksort sorts/multi_quicksort1529313152.c simpleMain.c -o multi_quicksort1281932961
	sim-cache -cache:dl1 dl1:256:32:1:l -cache:dl2 dl2:131072:32:1:l -cache:il1 il1:256:32:1:l -cache:il2 dl2 multi_quicksort1281932961
	sim-cache -cache:dl1 dl1:256:32:1:l -cache:dl2 dl2:65536:32:1:l -cache:il1 il1:256:32:1:l -cache:il2 dl2 multi_quicksort1281932961
	sim-cache -cache:dl1 dl1:1:32:256:l -cache:dl2 dl2:1:32:131072:l -cache:il1 il1:1:32:256:l -cache:il2 dl2 multi_quicksort1281932961
	sim-cache -cache:dl1 dl1:1:32:256:l -cache:dl2 dl2:1:32:65536:l -cache:il1 il1:1:32:256:l -cache:il2 dl2 multi_quicksort1281932961
	sim-bpred -bpred bimod -bpred:bimod 512 multi_quicksort1281932961
	sim-bpred -bpred bimod -bpred:bimod 1024 multi_quicksort1281932961
	sim-bpred -bpred bimod -bpred:bimod 2048 multi_quicksort1281932961
	sim-bpred -bpred 2lev -bpred:2lev 1 512 10 1 multi_quicksort1281932961
	sim-bpred -bpred 2lev -bpred:2lev 1 1024 10 1 multi_quicksort1281932961
	sim-bpred -bpred 2lev -bpred:2lev 1 2048 10 1 multi_quicksort1281932961
	sim-bpred -bpred 2lev -bpred:2lev 1 4096 10 1 multi_quicksort1281932961
	sslittle-na-sstrix-gcc -Wall -O3 -funroll-loops -finline-functions  -DRANDOM_SIZE=32768 -DOFFSET=9 -DSORT=multi_quicksort sorts/multi_quicksort1529313152.c simpleMain.c -o multi_quicksort1281932961
	sim-cache -cache:dl1 dl1:256:32:1:l -cache:dl2 dl2:131072:32:1:l -cache:il1 il1:256:32:1:l -cache:il2 dl2 multi_quicksort1281932961
	sim-cache -cache:dl1 dl1:256:32:1:l -cache:dl2 dl2:65536:32:1:l -cache:il1 il1:256:32:1:l -cache:il2 dl2 multi_quicksort1281932961
	sim-cache -cache:dl1 dl1:1:32:256:l -cache:dl2 dl2:1:32:131072:l -cache:il1 il1:1:32:256:l -cache:il2 dl2 multi_quicksort1281932961
	sim-cache -cache:dl1 dl1:1:32:256:l -cache:dl2 dl2:1:32:65536:l -cache:il1 il1:1:32:256:l -cache:il2 dl2 multi_quicksort1281932961
	sim-bpred -bpred bimod -bpred:bimod 512 multi_quicksort1281932961
	sim-bpred -bpred bimod -bpred:bimod 1024 multi_quicksort1281932961
	sim-bpred -bpred bimod -bpred:bimod 2048 multi_quicksort1281932961
	sim-bpred -bpred 2lev -bpred:2lev 1 512 10 1 multi_quicksort1281932961
	sim-bpred -bpred 2lev -bpred:2lev 1 1024 10 1 multi_quicksort1281932961
	sim-bpred -bpred 2lev -bpred:2lev 1 2048 10 1 multi_quicksort1281932961
	sim-bpred -bpred 2lev -bpred:2lev 1 4096 10 1 multi_quicksort1281932961
	sslittle-na-sstrix-gcc -Wall -O3 -funroll-loops -finline-functions  -DRANDOM_SIZE=65536 -DOFFSET=9 -DSORT=multi_quicksort sorts/multi_quicksort1529313152.c simpleMain.c -o multi_quicksort1281932961
	sim-cache -cache:dl1 dl1:256:32:1:l -cache:dl2 dl2:131072:32:1:l -cache:il1 il1:256:32:1:l -cache:il2 dl2 multi_quicksort1281932961
	sim-cache -cache:dl1 dl1:256:32:1:l -cache:dl2 dl2:65536:32:1:l -cache:il1 il1:256:32:1:l -cache:il2 dl2 multi_quicksort1281932961
	sim-cache -cache:dl1 dl1:1:32:256:l -cache:dl2 dl2:1:32:131072:l -cache:il1 il1:1:32:256:l -cache:il2 dl2 multi_quicksort1281932961
	sim-cache -cache:dl1 dl1:1:32:256:l -cache:dl2 dl2:1:32:65536:l -cache:il1 il1:1:32:256:l -cache:il2 dl2 multi_quicksort1281932961
	sim-bpred -bpred bimod -bpred:bimod 512 multi_quicksort1281932961
	sim-bpred -bpred bimod -bpred:bimod 1024 multi_quicksort1281932961
	sim-bpred -bpred bimod -bpred:bimod 2048 multi_quicksort1281932961
	sim-bpred -bpred 2lev -bpred:2lev 1 512 10 1 multi_quicksort1281932961
	sim-bpred -bpred 2lev -bpred:2lev 1 1024 10 1 multi_quicksort1281932961
	sim-bpred -bpred 2lev -bpred:2lev 1 2048 10 1 multi_quicksort1281932961
	sim-bpred -bpred 2lev -bpred:2lev 1 4096 10 1 multi_quicksort1281932961
	sslittle-na-sstrix-gcc -Wall -O3 -funroll-loops -finline-functions  -DRANDOM_SIZE=131072 -DOFFSET=9 -DSORT=multi_quicksort sorts/multi_quicksort1529313152.c simpleMain.c -o multi_quicksort1281932961
	sim-cache -cache:dl1 dl1:256:32:1:l -cache:dl2 dl2:131072:32:1:l -cache:il1 il1:256:32:1:l -cache:il2 dl2 multi_quicksort1281932961
	sim-cache -cache:dl1 dl1:256:32:1:l -cache:dl2 dl2:65536:32:1:l -cache:il1 il1:256:32:1:l -cache:il2 dl2 multi_quicksort1281932961
	sim-cache -cache:dl1 dl1:1:32:256:l -cache:dl2 dl2:1:32:131072:l -cache:il1 il1:1:32:256:l -cache:il2 dl2 multi_quicksort1281932961
	sim-cache -cache:dl1 dl1:1:32:256:l -cache:dl2 dl2:1:32:65536:l -cache:il1 il1:1:32:256:l -cache:il2 dl2 multi_quicksort1281932961
	sim-bpred -bpred bimod -bpred:bimod 512 multi_quicksort1281932961
	sim-bpred -bpred bimod -bpred:bimod 1024 multi_quicksort1281932961
	sim-bpred -bpred bimod -bpred:bimod 2048 multi_quicksort1281932961
	sim-bpred -bpred 2lev -bpred:2lev 1 512 10 1 multi_quicksort1281932961
	sim-bpred -bpred 2lev -bpred:2lev 1 1024 10 1 multi_quicksort1281932961
	sim-bpred -bpred 2lev -bpred:2lev 1 2048 10 1 multi_quicksort1281932961
	sim-bpred -bpred 2lev -bpred:2lev 1 4096 10 1 multi_quicksort1281932961
	sslittle-na-sstrix-gcc -Wall -O3 -funroll-loops -finline-functions  -DRANDOM_SIZE=262144 -DOFFSET=9 -DSORT=multi_quicksort sorts/multi_quicksort1529313152.c simpleMain.c -o multi_quicksort1281932961
	sim-cache -cache:dl1 dl1:256:32:1:l -cache:dl2 dl2:131072:32:1:l -cache:il1 il1:256:32:1:l -cache:il2 dl2 multi_quicksort1281932961
	sim-cache -cache:dl1 dl1:256:32:1:l -cache:dl2 dl2:65536:32:1:l -cache:il1 il1:256:32:1:l -cache:il2 dl2 multi_quicksort1281932961
	sim-cache -cache:dl1 dl1:1:32:256:l -cache:dl2 dl2:1:32:131072:l -cache:il1 il1:1:32:256:l -cache:il2 dl2 multi_quicksort1281932961
	sim-cache -cache:dl1 dl1:1:32:256:l -cache:dl2 dl2:1:32:65536:l -cache:il1 il1:1:32:256:l -cache:il2 dl2 multi_quicksort1281932961
	sim-bpred -bpred bimod -bpred:bimod 512 multi_quicksort1281932961
	sim-bpred -bpred bimod -bpred:bimod 1024 multi_quicksort1281932961
	sim-bpred -bpred bimod -bpred:bimod 2048 multi_quicksort1281932961
	sim-bpred -bpred 2lev -bpred:2lev 1 512 10 1 multi_quicksort1281932961
	sim-bpred -bpred 2lev -bpred:2lev 1 1024 10 1 multi_quicksort1281932961
	sim-bpred -bpred 2lev -bpred:2lev 1 2048 10 1 multi_quicksort1281932961
	sim-bpred -bpred 2lev -bpred:2lev 1 4096 10 1 multi_quicksort1281932961
	sslittle-na-sstrix-gcc -Wall -O3 -funroll-loops -finline-functions  -DRANDOM_SIZE=524288 -DOFFSET=9 -DSORT=multi_quicksort sorts/multi_quicksort1529313152.c simpleMain.c -o multi_quicksort1281932961
	sim-cache -cache:dl1 dl1:256:32:1:l -cache:dl2 dl2:131072:32:1:l -cache:il1 il1:256:32:1:l -cache:il2 dl2 multi_quicksort1281932961
	sim-cache -cache:dl1 dl1:256:32:1:l -cache:dl2 dl2:65536:32:1:l -cache:il1 il1:256:32:1:l -cache:il2 dl2 multi_quicksort1281932961
	sim-cache -cache:dl1 dl1:1:32:256:l -cache:dl2 dl2:1:32:131072:l -cache:il1 il1:1:32:256:l -cache:il2 dl2 multi_quicksort1281932961
	sim-cache -cache:dl1 dl1:1:32:256:l -cache:dl2 dl2:1:32:65536:l -cache:il1 il1:1:32:256:l -cache:il2 dl2 multi_quicksort1281932961
	sim-bpred -bpred bimod -bpred:bimod 512 multi_quicksort1281932961
	sim-bpred -bpred bimod -bpred:bimod 1024 multi_quicksort1281932961
	sim-bpred -bpred bimod -bpred:bimod 2048 multi_quicksort1281932961
	sim-bpred -bpred 2lev -bpred:2lev 1 512 10 1 multi_quicksort1281932961
	sim-bpred -bpred 2lev -bpred:2lev 1 1024 10 1 multi_quicksort1281932961
	sim-bpred -bpred 2lev -bpred:2lev 1 2048 10 1 multi_quicksort1281932961
	sim-bpred -bpred 2lev -bpred:2lev 1 4096 10 1 multi_quicksort1281932961
	sslittle-na-sstrix-gcc -Wall -O3 -funroll-loops -finline-functions  -DRANDOM_SIZE=1048576 -DOFFSET=9 -DSORT=multi_quicksort sorts/multi_quicksort1529313152.c simpleMain.c -o multi_quicksort1281932961
	sim-cache -cache:dl1 dl1:256:32:1:l -cache:dl2 dl2:131072:32:1:l -cache:il1 il1:256:32:1:l -cache:il2 dl2 multi_quicksort1281932961
	sim-cache -cache:dl1 dl1:256:32:1:l -cache:dl2 dl2:65536:32:1:l -cache:il1 il1:256:32:1:l -cache:il2 dl2 multi_quicksort1281932961
	sim-cache -cache:dl1 dl1:1:32:256:l -cache:dl2 dl2:1:32:131072:l -cache:il1 il1:1:32:256:l -cache:il2 dl2 multi_quicksort1281932961
	sim-cache -cache:dl1 dl1:1:32:256:l -cache:dl2 dl2:1:32:65536:l -cache:il1 il1:1:32:256:l -cache:il2 dl2 multi_quicksort1281932961
	sim-bpred -bpred bimod -bpred:bimod 512 multi_quicksort1281932961
	sim-bpred -bpred bimod -bpred:bimod 1024 multi_quicksort1281932961
	sim-bpred -bpred bimod -bpred:bimod 2048 multi_quicksort1281932961
	sim-bpred -bpred 2lev -bpred:2lev 1 512 10 1 multi_quicksort1281932961
	sim-bpred -bpred 2lev -bpred:2lev 1 1024 10 1 multi_quicksort1281932961
	sim-bpred -bpred 2lev -bpred:2lev 1 2048 10 1 multi_quicksort1281932961
	sim-bpred -bpred 2lev -bpred:2lev 1 4096 10 1 multi_quicksort1281932961
	sslittle-na-sstrix-gcc -Wall -O3 -funroll-loops -finline-functions  -DRANDOM_SIZE=2097152 -DOFFSET=9 -DSORT=multi_quicksort sorts/multi_quicksort1529313152.c simpleMain.c -o multi_quicksort1281932961
	sim-cache -cache:dl1 dl1:256:32:1:l -cache:dl2 dl2:131072:32:1:l -cache:il1 il1:256:32:1:l -cache:il2 dl2 multi_quicksort1281932961
	sim-cache -cache:dl1 dl1:256:32:1:l -cache:dl2 dl2:65536:32:1:l -cache:il1 il1:256:32:1:l -cache:il2 dl2 multi_quicksort1281932961
	sim-cache -cache:dl1 dl1:1:32:256:l -cache:dl2 dl2:1:32:131072:l -cache:il1 il1:1:32:256:l -cache:il2 dl2 multi_quicksort1281932961
	sim-cache -cache:dl1 dl1:1:32:256:l -cache:dl2 dl2:1:32:65536:l -cache:il1 il1:1:32:256:l -cache:il2 dl2 multi_quicksort1281932961
	sim-bpred -bpred bimod -bpred:bimod 512 multi_quicksort1281932961
	sim-bpred -bpred bimod -bpred:bimod 1024 multi_quicksort1281932961
	sim-bpred -bpred bimod -bpred:bimod 2048 multi_quicksort1281932961
	sim-bpred -bpred 2lev -bpred:2lev 1 512 10 1 multi_quicksort1281932961
	sim-bpred -bpred 2lev -bpred:2lev 1 1024 10 1 multi_quicksort1281932961
	sim-bpred -bpred 2lev -bpred:2lev 1 2048 10 1 multi_quicksort1281932961
	sim-bpred -bpred 2lev -bpred:2lev 1 4096 10 1 multi_quicksort1281932961
	sslittle-na-sstrix-gcc -Wall -O3 -funroll-loops -finline-functions  -DRANDOM_SIZE=4194304 -DOFFSET=9 -DSORT=multi_quicksort sorts/multi_quicksort1529313152.c simpleMain.c -o multi_quicksort1281932961
	sim-cache -cache:dl1 dl1:256:32:1:l -cache:dl2 dl2:131072:32:1:l -cache:il1 il1:256:32:1:l -cache:il2 dl2 multi_quicksort1281932961
	sim-cache -cache:dl1 dl1:256:32:1:l -cache:dl2 dl2:65536:32:1:l -cache:il1 il1:256:32:1:l -cache:il2 dl2 multi_quicksort1281932961
	sim-cache -cache:dl1 dl1:1:32:256:l -cache:dl2 dl2:1:32:131072:l -cache:il1 il1:1:32:256:l -cache:il2 dl2 multi_quicksort1281932961
	sim-cache -cache:dl1 dl1:1:32:256:l -cache:dl2 dl2:1:32:65536:l -cache:il1 il1:1:32:256:l -cache:il2 dl2 multi_quicksort1281932961
	sim-bpred -bpred bimod -bpred:bimod 512 multi_quicksort1281932961
	sim-bpred -bpred bimod -bpred:bimod 1024 multi_quicksort1281932961
	sim-bpred -bpred bimod -bpred:bimod 2048 multi_quicksort1281932961
	sim-bpred -bpred 2lev -bpred:2lev 1 512 10 1 multi_quicksort1281932961
	sim-bpred -bpred 2lev -bpred:2lev 1 1024 10 1 multi_quicksort1281932961
	sim-bpred -bpred 2lev -bpred:2lev 1 2048 10 1 multi_quicksort1281932961
	sim-bpred -bpred 2lev -bpred:2lev 1 4096 10 1 multi_quicksort1281932961
