Fri Jul  8 04:18:42 2005
Run as: "./do_simple -c random.org4 -o 4 multi_mergesort"
-------------------------------------------------------------------------------------------------
sim-cache                                     4096 |         4096 |         4096 |         4096 |         8192 |         8192 |         8192 |         8192 |        16384 |        16384 |        16384 |        16384 |        32768 |        32768 |        32768 |        32768 |        65536 |        65536 |        65536 |        65536 |       131072 |       131072 |       131072 |       131072 |       262144 |       262144 |       262144 |       262144 |       524288 |       524288 |       524288 |       524288 |      1048576 |      1048576 |      1048576 |      1048576 |      2097152 |      2097152 |      2097152 |      2097152 |      4194304 |      4194304 |      4194304 |      4194304 |
-cache:dl1 dl1:256:32:1:l -cache:dl2 dl2:131072:32:1:l -cache:il1 il1:256:32:1:l -cache:il2 dl2
-cache:dl1 dl1:256:32:1:l -cache:dl2 dl2:65536:32:1:l -cache:il1 il1:256:32:1:l -cache:il2 dl2
-cache:dl1 dl1:1:32:256:l -cache:dl2 dl2:1:32:131072:l -cache:il1 il1:1:32:256:l -cache:il2 dl2
-cache:dl1 dl1:1:32:256:l -cache:dl2 dl2:1:32:65536:l -cache:il1 il1:1:32:256:l -cache:il2 dl2
-------------------------------------------------------------------------------------------------
sim_num_insn                                863391 |       863391 |       863391 |       863391 |      1755617 |      1755617 |      1755617 |      1755617 |      3964869 |      3964869 |      3964869 |      3964869 |      8069688 |      8069688 |      8069688 |      8069688 |     17984543 |     17984543 |     17984543 |     17984543 |     36582826 |     36582826 |     36582826 |     36582826 |     77488751 |     77488751 |     77488751 |     77488751 |    223408478 |    223408478 |    223408478 |    223408478 |    473225225 |    473225225 |    473225225 |    473225225 |   1035729747 |   1035729747 |   1035729747 |   1035729747 |   2186628773 |   2186628773 |   2186628773 |   2186628773 |
sim_num_refs                                229678 |       229678 |       229678 |       229678 |       473084 |       473084 |       473084 |       473084 |      1052712 |      1052712 |      1052712 |      1052712 |      2172546 |      2172546 |      2172546 |      2172546 |      4785250 |      4785250 |      4785250 |      4785250 |      9857170 |      9857170 |      9857170 |      9857170 |     20891281 |     20891281 |     20891281 |     20891281 |     60946350 |     60946350 |     60946350 |     60946350 |    130163183 |    130163183 |    130163183 |    130163183 |    283191457 |    283191457 |    283191457 |    283191457 |    604296265 |    604296265 |    604296265 |    604296265 |
sim_elapsed_time                                 1 |            1 |           10 |            6 |            1 |            1 |           17 |            8 |            1 |            2 |           27 |           14 |            3 |            2 |           49 |           26 |            5 |            5 |           92 |           45 |           11 |           10 |          167 |           79 |           22 |           21 |          288 |          110 |           63 |           62 |          416 |          153 |          132 |          133 |          489 |          227 |          290 |          290 |          655 |          394 |          612 |          610 |          993 |          735 |
sim_inst_rate                          863391.0000 |  863391.0000 |   86339.1000 |  143898.5000 | 1755617.0000 | 1755617.0000 |  103271.5882 |  219452.1250 | 3964869.0000 | 1982434.5000 |  146847.0000 |  283204.9286 | 2689896.0000 | 4034844.0000 |  164687.5102 |  310372.6154 | 3596908.6000 | 3596908.6000 |  195484.1630 |  399656.5111 | 3325711.4545 | 3658282.6000 |  219058.8383 |  463073.7468 | 3522215.9545 | 3689940.5238 |  269058.1632 |  704443.1909 | 3546166.3175 | 3603362.5484 |  537039.6106 | 1460186.1307 | 3585039.5833 | 3558084.3985 |  967740.7464 | 2084692.6211 | 3571481.8862 | 3571481.8862 | 1581266.7893 | 2628755.7030 | 3572922.8317 | 3584637.3328 | 2202043.0745 | 2975005.1333 |
il1.accesses                                863391 |       863391 |       863391 |       863391 |      1755617 |      1755617 |      1755617 |      1755617 |      3964869 |      3964869 |      3964869 |      3964869 |      8069688 |      8069688 |      8069688 |      8069688 |     17984543 |     17984543 |     17984543 |     17984543 |     36582826 |     36582826 |     36582826 |     36582826 |     77488751 |     77488751 |     77488751 |     77488751 |    223408478 |    223408478 |    223408478 |    223408478 |    473225225 |    473225225 |    473225225 |    473225225 |   1035729747 |   1035729747 |   1035729747 |   1035729747 |   2186628773 |   2186628773 |   2186628773 |   2186628773 |
il1.hits                                    862707 |       862707 |       862812 |       862812 |      1754888 |      1754888 |      1755017 |      1755017 |      3964125 |      3964125 |      3964297 |      3964297 |      8068812 |      8068812 |      8069085 |      8069085 |     17983495 |     17983495 |     17983958 |     17983958 |     36581372 |     36581372 |     36582222 |     36582222 |     77487039 |     77487039 |     77488150 |     77488150 |    222096748 |    222096748 |    223407588 |    223407588 |    470602726 |    470602726 |    473224291 |    473224291 |   1030485820 |   1030485820 |   1035728828 |   1035728828 |   2176141933 |   2176141933 |   2186627836 |   2186627836 |
il1.misses                                     684 |          684 |          579 |          579 |          729 |          729 |          600 |          600 |          744 |          744 |          572 |          572 |          876 |          876 |          603 |          603 |         1048 |         1048 |          585 |          585 |         1454 |         1454 |          604 |          604 |         1712 |         1712 |          601 |          601 |      1311730 |      1311730 |          890 |          890 |      2622499 |      2622499 |          934 |          934 |      5243927 |      5243927 |          919 |          919 |     10486840 |     10486840 |          937 |          937 |
il1.replacements                               450 |          450 |          323 |          323 |          493 |          493 |          344 |          344 |          509 |          509 |          316 |          316 |          640 |          640 |          347 |          347 |          813 |          813 |          329 |          329 |         1218 |         1218 |          348 |          348 |         1475 |         1475 |          345 |          345 |      1311474 |      1311474 |          634 |          634 |      2622243 |      2622243 |          678 |          678 |      5243671 |      5243671 |          663 |          663 |     10486584 |     10486584 |          681 |          681 |
il1.writebacks                                   0 |            0 |            0 |            0 |            0 |            0 |            0 |            0 |            0 |            0 |            0 |            0 |            0 |            0 |            0 |            0 |            0 |            0 |            0 |            0 |            0 |            0 |            0 |            0 |            0 |            0 |            0 |            0 |            0 |            0 |            0 |            0 |            0 |            0 |            0 |            0 |            0 |            0 |            0 |            0 |            0 |            0 |            0 |            0 |
il1.invalidations                                0 |            0 |            0 |            0 |            0 |            0 |            0 |            0 |            0 |            0 |            0 |            0 |            0 |            0 |            0 |            0 |            0 |            0 |            0 |            0 |            0 |            0 |            0 |            0 |            0 |            0 |            0 |            0 |            0 |            0 |            0 |            0 |            0 |            0 |            0 |            0 |            0 |            0 |            0 |            0 |            0 |            0 |            0 |            0 |
il1.miss_rate                               0.0008 |       0.0008 |       0.0007 |       0.0007 |       0.0004 |       0.0004 |       0.0003 |       0.0003 |       0.0002 |       0.0002 |       0.0001 |       0.0001 |       0.0001 |       0.0001 |       0.0001 |       0.0001 |       0.0001 |       0.0001 |       0.0000 |       0.0000 |       0.0000 |       0.0000 |       0.0000 |       0.0000 |       0.0000 |       0.0000 |       0.0000 |       0.0000 |       0.0059 |       0.0059 |       0.0000 |       0.0000 |       0.0055 |       0.0055 |       0.0000 |       0.0000 |       0.0051 |       0.0051 |       0.0000 |       0.0000 |       0.0048 |       0.0048 |       0.0000 |       0.0000 |
il1.repl_rate                               0.0005 |       0.0005 |       0.0004 |       0.0004 |       0.0003 |       0.0003 |       0.0002 |       0.0002 |       0.0001 |       0.0001 |       0.0001 |       0.0001 |       0.0001 |       0.0001 |       0.0000 |       0.0000 |       0.0000 |       0.0000 |       0.0000 |       0.0000 |       0.0000 |       0.0000 |       0.0000 |       0.0000 |       0.0000 |       0.0000 |       0.0000 |       0.0000 |       0.0059 |       0.0059 |       0.0000 |       0.0000 |       0.0055 |       0.0055 |       0.0000 |       0.0000 |       0.0051 |       0.0051 |       0.0000 |       0.0000 |       0.0048 |       0.0048 |       0.0000 |       0.0000 |
il1.wb_rate                                 0.0000 |       0.0000 |       0.0000 |       0.0000 |       0.0000 |       0.0000 |       0.0000 |       0.0000 |       0.0000 |       0.0000 |       0.0000 |       0.0000 |       0.0000 |       0.0000 |       0.0000 |       0.0000 |       0.0000 |       0.0000 |       0.0000 |       0.0000 |       0.0000 |       0.0000 |       0.0000 |       0.0000 |       0.0000 |       0.0000 |       0.0000 |       0.0000 |       0.0000 |       0.0000 |       0.0000 |       0.0000 |       0.0000 |       0.0000 |       0.0000 |       0.0000 |       0.0000 |       0.0000 |       0.0000 |       0.0000 |       0.0000 |       0.0000 |       0.0000 |       0.0000 |
il1.inv_rate                                0.0000 |       0.0000 |       0.0000 |       0.0000 |       0.0000 |       0.0000 |       0.0000 |       0.0000 |       0.0000 |       0.0000 |       0.0000 |       0.0000 |       0.0000 |       0.0000 |       0.0000 |       0.0000 |       0.0000 |       0.0000 |       0.0000 |       0.0000 |       0.0000 |       0.0000 |       0.0000 |       0.0000 |       0.0000 |       0.0000 |       0.0000 |       0.0000 |       0.0000 |       0.0000 |       0.0000 |       0.0000 |       0.0000 |       0.0000 |       0.0000 |       0.0000 |       0.0000 |       0.0000 |       0.0000 |       0.0000 |       0.0000 |       0.0000 |       0.0000 |       0.0000 |
dl1.accesses                                246144 |       246144 |       246144 |       246144 |       505934 |       505934 |       505934 |       505934 |      1118330 |      1118330 |      1118330 |      1118330 |      2303700 |      2303700 |      2303700 |      2303700 |      5047476 |      5047476 |      5047476 |      5047476 |     10381540 |     10381540 |     10381540 |     10381540 |     21939939 |     21939939 |     21939939 |     21939939 |     63043584 |     63043584 |     63043584 |     63043584 |    134357569 |    134357569 |    134357569 |    134357569 |    291580147 |    291580147 |    291580147 |    291580147 |    621073563 |    621073563 |    621073563 |    621073563 |
dl1.hits                                    218377 |       218377 |       239213 |       239213 |       456534 |       456534 |       491740 |       491740 |       999826 |       999826 |      1083731 |      1083731 |      2089021 |      2089021 |      2231899 |      2231899 |      4538012 |      4538012 |      4877754 |      4877754 |      9451210 |      9451210 |     10030257 |     10030257 |     20007599 |     20007599 |     21172382 |     21172382 |     58317751 |     58317751 |     61294969 |     61294969 |    125885020 |    125885020 |    131024814 |    131024814 |    272644920 |    272644920 |    284591483 |    284591483 |    587105157 |    587105157 |    607745067 |    607745067 |
dl1.misses                                   27767 |        27767 |         6931 |         6931 |        49400 |        49400 |        14194 |        14194 |       118504 |       118504 |        34599 |        34599 |       214679 |       214679 |        71801 |        71801 |       509464 |       509464 |       169722 |       169722 |       930330 |       930330 |       351283 |       351283 |      1932340 |      1932340 |       767557 |       767557 |      4725833 |      4725833 |      1748615 |      1748615 |      8472549 |      8472549 |      3332755 |      3332755 |     18935227 |     18935227 |      6988664 |      6988664 |     33968406 |     33968406 |     13328496 |     13328496 |
dl1.replacements                             27511 |        27511 |         6675 |         6675 |        49144 |        49144 |        13938 |        13938 |       118248 |       118248 |        34343 |        34343 |       214423 |       214423 |        71545 |        71545 |       509208 |       509208 |       169466 |       169466 |       930074 |       930074 |       351027 |       351027 |      1932084 |      1932084 |       767301 |       767301 |      4725577 |      4725577 |      1748359 |      1748359 |      8472293 |      8472293 |      3332499 |      3332499 |     18934971 |     18934971 |      6988408 |      6988408 |     33968150 |     33968150 |     13328240 |     13328240 |
dl1.writebacks                               14928 |        14928 |         5041 |         5041 |        26871 |        26871 |         9773 |         9773 |        63312 |        63312 |        23393 |        23393 |       115574 |       115574 |        46401 |        46401 |       270101 |       270101 |       109040 |       109040 |       496460 |       496460 |       217356 |       217356 |      1026917 |      1026917 |       467035 |       467035 |      2549725 |      2549725 |      1067365 |      1067365 |      4620827 |      4620827 |      1999594 |      1999594 |     10229651 |     10229651 |      4266083 |      4266083 |     18560828 |     18560828 |      7998038 |      7998038 |
dl1.invalidations                                0 |            0 |            0 |            0 |            0 |            0 |            0 |            0 |            0 |            0 |            0 |            0 |            0 |            0 |            0 |            0 |            0 |            0 |            0 |            0 |            0 |            0 |            0 |            0 |            0 |            0 |            0 |            0 |            0 |            0 |            0 |            0 |            0 |            0 |            0 |            0 |            0 |            0 |            0 |            0 |            0 |            0 |            0 |            0 |
dl1.miss_rate                               0.1128 |       0.1128 |       0.0282 |       0.0282 |       0.0976 |       0.0976 |       0.0281 |       0.0281 |       0.1060 |       0.1060 |       0.0309 |       0.0309 |       0.0932 |       0.0932 |       0.0312 |       0.0312 |       0.1009 |       0.1009 |       0.0336 |       0.0336 |       0.0896 |       0.0896 |       0.0338 |       0.0338 |       0.0881 |       0.0881 |       0.0350 |       0.0350 |       0.0750 |       0.0750 |       0.0277 |       0.0277 |       0.0631 |       0.0631 |       0.0248 |       0.0248 |       0.0649 |       0.0649 |       0.0240 |       0.0240 |       0.0547 |       0.0547 |       0.0215 |       0.0215 |
dl1.repl_rate                               0.1118 |       0.1118 |       0.0271 |       0.0271 |       0.0971 |       0.0971 |       0.0275 |       0.0275 |       0.1057 |       0.1057 |       0.0307 |       0.0307 |       0.0931 |       0.0931 |       0.0311 |       0.0311 |       0.1009 |       0.1009 |       0.0336 |       0.0336 |       0.0896 |       0.0896 |       0.0338 |       0.0338 |       0.0881 |       0.0881 |       0.0350 |       0.0350 |       0.0750 |       0.0750 |       0.0277 |       0.0277 |       0.0631 |       0.0631 |       0.0248 |       0.0248 |       0.0649 |       0.0649 |       0.0240 |       0.0240 |       0.0547 |       0.0547 |       0.0215 |       0.0215 |
dl1.wb_rate                                 0.0606 |       0.0606 |       0.0205 |       0.0205 |       0.0531 |       0.0531 |       0.0193 |       0.0193 |       0.0566 |       0.0566 |       0.0209 |       0.0209 |       0.0502 |       0.0502 |       0.0201 |       0.0201 |       0.0535 |       0.0535 |       0.0216 |       0.0216 |       0.0478 |       0.0478 |       0.0209 |       0.0209 |       0.0468 |       0.0468 |       0.0213 |       0.0213 |       0.0404 |       0.0404 |       0.0169 |       0.0169 |       0.0344 |       0.0344 |       0.0149 |       0.0149 |       0.0351 |       0.0351 |       0.0146 |       0.0146 |       0.0299 |       0.0299 |       0.0129 |       0.0129 |
dl1.inv_rate                                0.0000 |       0.0000 |       0.0000 |       0.0000 |       0.0000 |       0.0000 |       0.0000 |       0.0000 |       0.0000 |       0.0000 |       0.0000 |       0.0000 |       0.0000 |       0.0000 |       0.0000 |       0.0000 |       0.0000 |       0.0000 |       0.0000 |       0.0000 |       0.0000 |       0.0000 |       0.0000 |       0.0000 |       0.0000 |       0.0000 |       0.0000 |       0.0000 |       0.0000 |       0.0000 |       0.0000 |       0.0000 |       0.0000 |       0.0000 |       0.0000 |       0.0000 |       0.0000 |       0.0000 |       0.0000 |       0.0000 |       0.0000 |       0.0000 |       0.0000 |       0.0000 |
dl2.accesses                                 43379 |        43379 |        12551 |        12551 |        77000 |        77000 |        24567 |        24567 |       182560 |       182560 |        58564 |        58564 |       331129 |       331129 |       118805 |       118805 |       780613 |       780613 |       279347 |       279347 |      1428244 |      1428244 |       569243 |       569243 |      2960969 |      2960969 |      1235193 |      1235193 |      8587288 |      8587288 |      2816870 |      2816870 |     15715875 |     15715875 |      5333283 |      5333283 |     34408805 |     34408805 |     11255666 |     11255666 |     63016074 |     63016074 |     21327471 |     21327471 |
dl2.hits                                     41321 |        41321 |        10586 |        10586 |        73885 |        73885 |        21561 |        21561 |       177432 |       177432 |        53533 |        53533 |       321868 |       321868 |       109653 |       109653 |       763188 |       763188 |       262019 |       262019 |      1394406 |      1394406 |       535514 |       535514 |      2894363 |      2894214 |      1168700 |      1132013 |      8399446 |      8299089 |      2647630 |      2425354 |     15131138 |     15062841 |      4686045 |      4553757 |     33095329 |     33094822 |      9946270 |      9700071 |     60388330 |     60387215 |     18703494 |     18218515 |
dl2.misses                                    2058 |         2058 |         1965 |         1965 |         3115 |         3115 |         3006 |         3006 |         5128 |         5128 |         5031 |         5031 |         9261 |         9261 |         9152 |         9152 |        17425 |        17425 |        17328 |        17328 |        33838 |        33838 |        33729 |        33729 |        66606 |        66755 |        66493 |       103180 |       187842 |       288199 |       169240 |       391516 |       584737 |       653034 |       647238 |       779526 |      1313476 |      1313983 |      1309396 |      1555595 |      2627744 |      2628859 |      2623977 |      3108956 |
dl2.replacements                               253 |          253 |            0 |            0 |          285 |          285 |            0 |            0 |          257 |          257 |            0 |            0 |          285 |          285 |            0 |            0 |          258 |          258 |            0 |            0 |          286 |          286 |            0 |            0 |          294 |         1219 |            0 |        37644 |        88087 |       222663 |        38168 |       325980 |       453665 |       587498 |       516166 |       713990 |      1182404 |      1248447 |      1178324 |      1490059 |      2496672 |      2563323 |      2492905 |      3043420 |
dl2.writebacks                                  88 |           88 |            0 |            0 |           96 |           96 |            0 |            0 |           92 |           92 |            0 |            0 |           96 |           96 |            0 |            0 |           93 |           93 |            0 |            0 |           97 |           97 |            0 |            0 |          108 |          718 |            0 |        37202 |        87826 |       188549 |        37340 |       292126 |       388909 |       473677 |       460430 |       614480 |       951323 |       993195 |       985374 |      1259338 |      1986628 |      2040736 |      2035343 |      2550217 |
dl2.invalidations                                0 |            0 |            0 |            0 |            0 |            0 |            0 |            0 |            0 |            0 |            0 |            0 |            0 |            0 |            0 |            0 |            0 |            0 |            0 |            0 |            0 |            0 |            0 |            0 |            0 |            0 |            0 |            0 |            0 |            0 |            0 |            0 |            0 |            0 |            0 |            0 |            0 |            0 |            0 |            0 |            0 |            0 |            0 |            0 |
dl2.miss_rate                               0.0474 |       0.0474 |       0.1566 |       0.1566 |       0.0405 |       0.0405 |       0.1224 |       0.1224 |       0.0281 |       0.0281 |       0.0859 |       0.0859 |       0.0280 |       0.0280 |       0.0770 |       0.0770 |       0.0223 |       0.0223 |       0.0620 |       0.0620 |       0.0237 |       0.0237 |       0.0593 |       0.0593 |       0.0225 |       0.0225 |       0.0538 |       0.0835 |       0.0219 |       0.0336 |       0.0601 |       0.1390 |       0.0372 |       0.0416 |       0.1214 |       0.1462 |       0.0382 |       0.0382 |       0.1163 |       0.1382 |       0.0417 |       0.0417 |       0.1230 |       0.1458 |
dl2.repl_rate                               0.0058 |       0.0058 |       0.0000 |       0.0000 |       0.0037 |       0.0037 |       0.0000 |       0.0000 |       0.0014 |       0.0014 |       0.0000 |       0.0000 |       0.0009 |       0.0009 |       0.0000 |       0.0000 |       0.0003 |       0.0003 |       0.0000 |       0.0000 |       0.0002 |       0.0002 |       0.0000 |       0.0000 |       0.0001 |       0.0004 |       0.0000 |       0.0305 |       0.0103 |       0.0259 |       0.0135 |       0.1157 |       0.0289 |       0.0374 |       0.0968 |       0.1339 |       0.0344 |       0.0363 |       0.1047 |       0.1324 |       0.0396 |       0.0407 |       0.1169 |       0.1427 |
dl2.wb_rate                                 0.0020 |       0.0020 |       0.0000 |       0.0000 |       0.0012 |       0.0012 |       0.0000 |       0.0000 |       0.0005 |       0.0005 |       0.0000 |       0.0000 |       0.0003 |       0.0003 |       0.0000 |       0.0000 |       0.0001 |       0.0001 |       0.0000 |       0.0000 |       0.0001 |       0.0001 |       0.0000 |       0.0000 |       0.0000 |       0.0002 |       0.0000 |       0.0301 |       0.0102 |       0.0220 |       0.0133 |       0.1037 |       0.0247 |       0.0301 |       0.0863 |       0.1152 |       0.0276 |       0.0289 |       0.0875 |       0.1119 |       0.0315 |       0.0324 |       0.0954 |       0.1196 |
dl2.inv_rate                                0.0000 |       0.0000 |       0.0000 |       0.0000 |       0.0000 |       0.0000 |       0.0000 |       0.0000 |       0.0000 |       0.0000 |       0.0000 |       0.0000 |       0.0000 |       0.0000 |       0.0000 |       0.0000 |       0.0000 |       0.0000 |       0.0000 |       0.0000 |       0.0000 |       0.0000 |       0.0000 |       0.0000 |       0.0000 |       0.0000 |       0.0000 |       0.0000 |       0.0000 |       0.0000 |       0.0000 |       0.0000 |       0.0000 |       0.0000 |       0.0000 |       0.0000 |       0.0000 |       0.0000 |       0.0000 |       0.0000 |       0.0000 |       0.0000 |       0.0000 |       0.0000 |
itlb.accesses                               863391 |       863391 |       863391 |       863391 |      1755617 |      1755617 |      1755617 |      1755617 |      3964869 |      3964869 |      3964869 |      3964869 |      8069688 |      8069688 |      8069688 |      8069688 |     17984543 |     17984543 |     17984543 |     17984543 |     36582826 |     36582826 |     36582826 |     36582826 |     77488751 |     77488751 |     77488751 |     77488751 |    223408478 |    223408478 |    223408478 |    223408478 |    473225225 |    473225225 |    473225225 |    473225225 |   1035729747 |   1035729747 |   1035729747 |   1035729747 |   2186628773 |   2186628773 |   2186628773 |   2186628773 |
itlb.hits                                   863377 |       863377 |       863377 |       863377 |      1755603 |      1755603 |      1755603 |      1755603 |      3964855 |      3964855 |      3964855 |      3964855 |      8069674 |      8069674 |      8069674 |      8069674 |     17984529 |     17984529 |     17984529 |     17984529 |     36582812 |     36582812 |     36582812 |     36582812 |     77488737 |     77488737 |     77488737 |     77488737 |    223408464 |    223408464 |    223408464 |    223408464 |    473225211 |    473225211 |    473225211 |    473225211 |   1035729733 |   1035729733 |   1035729733 |   1035729733 |   2186628759 |   2186628759 |   2186628759 |   2186628759 |
itlb.misses                                     14 |           14 |           14 |           14 |           14 |           14 |           14 |           14 |           14 |           14 |           14 |           14 |           14 |           14 |           14 |           14 |           14 |           14 |           14 |           14 |           14 |           14 |           14 |           14 |           14 |           14 |           14 |           14 |           14 |           14 |           14 |           14 |           14 |           14 |           14 |           14 |           14 |           14 |           14 |           14 |           14 |           14 |           14 |           14 |
itlb.replacements                                0 |            0 |            0 |            0 |            0 |            0 |            0 |            0 |            0 |            0 |            0 |            0 |            0 |            0 |            0 |            0 |            0 |            0 |            0 |            0 |            0 |            0 |            0 |            0 |            0 |            0 |            0 |            0 |            0 |            0 |            0 |            0 |            0 |            0 |            0 |            0 |            0 |            0 |            0 |            0 |            0 |            0 |            0 |            0 |
itlb.writebacks                                  0 |            0 |            0 |            0 |            0 |            0 |            0 |            0 |            0 |            0 |            0 |            0 |            0 |            0 |            0 |            0 |            0 |            0 |            0 |            0 |            0 |            0 |            0 |            0 |            0 |            0 |            0 |            0 |            0 |            0 |            0 |            0 |            0 |            0 |            0 |            0 |            0 |            0 |            0 |            0 |            0 |            0 |            0 |            0 |
itlb.invalidations                               0 |            0 |            0 |            0 |            0 |            0 |            0 |            0 |            0 |            0 |            0 |            0 |            0 |            0 |            0 |            0 |            0 |            0 |            0 |            0 |            0 |            0 |            0 |            0 |            0 |            0 |            0 |            0 |            0 |            0 |            0 |            0 |            0 |            0 |            0 |            0 |            0 |            0 |            0 |            0 |            0 |            0 |            0 |            0 |
itlb.miss_rate                              0.0000 |       0.0000 |       0.0000 |       0.0000 |       0.0000 |       0.0000 |       0.0000 |       0.0000 |       0.0000 |       0.0000 |       0.0000 |       0.0000 |       0.0000 |       0.0000 |       0.0000 |       0.0000 |       0.0000 |       0.0000 |       0.0000 |       0.0000 |       0.0000 |       0.0000 |       0.0000 |       0.0000 |       0.0000 |       0.0000 |       0.0000 |       0.0000 |       0.0000 |       0.0000 |       0.0000 |       0.0000 |       0.0000 |       0.0000 |       0.0000 |       0.0000 |       0.0000 |       0.0000 |       0.0000 |       0.0000 |       0.0000 |       0.0000 |       0.0000 |       0.0000 |
itlb.repl_rate                              0.0000 |       0.0000 |       0.0000 |       0.0000 |       0.0000 |       0.0000 |       0.0000 |       0.0000 |       0.0000 |       0.0000 |       0.0000 |       0.0000 |       0.0000 |       0.0000 |       0.0000 |       0.0000 |       0.0000 |       0.0000 |       0.0000 |       0.0000 |       0.0000 |       0.0000 |       0.0000 |       0.0000 |       0.0000 |       0.0000 |       0.0000 |       0.0000 |       0.0000 |       0.0000 |       0.0000 |       0.0000 |       0.0000 |       0.0000 |       0.0000 |       0.0000 |       0.0000 |       0.0000 |       0.0000 |       0.0000 |       0.0000 |       0.0000 |       0.0000 |       0.0000 |
itlb.wb_rate                                0.0000 |       0.0000 |       0.0000 |       0.0000 |       0.0000 |       0.0000 |       0.0000 |       0.0000 |       0.0000 |       0.0000 |       0.0000 |       0.0000 |       0.0000 |       0.0000 |       0.0000 |       0.0000 |       0.0000 |       0.0000 |       0.0000 |       0.0000 |       0.0000 |       0.0000 |       0.0000 |       0.0000 |       0.0000 |       0.0000 |       0.0000 |       0.0000 |       0.0000 |       0.0000 |       0.0000 |       0.0000 |       0.0000 |       0.0000 |       0.0000 |       0.0000 |       0.0000 |       0.0000 |       0.0000 |       0.0000 |       0.0000 |       0.0000 |       0.0000 |       0.0000 |
itlb.inv_rate                               0.0000 |       0.0000 |       0.0000 |       0.0000 |       0.0000 |       0.0000 |       0.0000 |       0.0000 |       0.0000 |       0.0000 |       0.0000 |       0.0000 |       0.0000 |       0.0000 |       0.0000 |       0.0000 |       0.0000 |       0.0000 |       0.0000 |       0.0000 |       0.0000 |       0.0000 |       0.0000 |       0.0000 |       0.0000 |       0.0000 |       0.0000 |       0.0000 |       0.0000 |       0.0000 |       0.0000 |       0.0000 |       0.0000 |       0.0000 |       0.0000 |       0.0000 |       0.0000 |       0.0000 |       0.0000 |       0.0000 |       0.0000 |       0.0000 |       0.0000 |       0.0000 |
dtlb.accesses                               246144 |       246144 |       246144 |       246144 |       505934 |       505934 |       505934 |       505934 |      1118330 |      1118330 |      1118330 |      1118330 |      2303700 |      2303700 |      2303700 |      2303700 |      5047476 |      5047476 |      5047476 |      5047476 |     10381540 |     10381540 |     10381540 |     10381540 |     21939939 |     21939939 |     21939939 |     21939939 |     63043584 |     63043584 |     63043584 |     63043584 |    134357569 |    134357569 |    134357569 |    134357569 |    291580147 |    291580147 |    291580147 |    291580147 |    621073563 |    621073563 |    621073563 |    621073563 |
dtlb.hits                                   246128 |       246128 |       246128 |       246128 |       505910 |       505910 |       505910 |       505910 |      1118290 |      1118290 |      1118290 |      1118290 |      2303628 |      2303628 |      2303628 |      2303628 |      5047291 |      5047291 |      5047291 |      5047291 |     10379114 |     10379114 |     10379114 |     10379114 |     21934525 |     21934525 |     21934525 |     21934525 |     63031853 |     63031853 |     63031853 |     63031853 |    134334069 |    134334069 |    134334069 |    134334069 |    291515241 |    291515241 |    291515241 |    291515241 |    620607214 |    620607214 |    620607214 |    620607214 |
dtlb.misses                                     16 |           16 |           16 |           16 |           24 |           24 |           24 |           24 |           40 |           40 |           40 |           40 |           72 |           72 |           72 |           72 |          185 |          185 |          185 |          185 |         2426 |         2426 |         2426 |         2426 |         5414 |         5414 |         5414 |         5414 |        11731 |        11731 |        11731 |        11731 |        23500 |        23500 |        23500 |        23500 |        64906 |        64906 |        64906 |        64906 |       466349 |       466349 |       466349 |       466349 |
dtlb.replacements                                0 |            0 |            0 |            0 |            0 |            0 |            0 |            0 |            0 |            0 |            0 |            0 |            0 |            0 |            0 |            0 |           57 |           57 |           57 |           57 |         2298 |         2298 |         2298 |         2298 |         5286 |         5286 |         5286 |         5286 |        11603 |        11603 |        11603 |        11603 |        23372 |        23372 |        23372 |        23372 |        64778 |        64778 |        64778 |        64778 |       466221 |       466221 |       466221 |       466221 |
dtlb.writebacks                                  0 |            0 |            0 |            0 |            0 |            0 |            0 |            0 |            0 |            0 |            0 |            0 |            0 |            0 |            0 |            0 |           37 |           37 |           37 |           37 |         1333 |         1333 |         1333 |         1333 |         3029 |         3029 |         3029 |         3029 |         6583 |         6583 |         6583 |         6583 |        13210 |        13210 |        13210 |        13210 |        26466 |        26466 |        26466 |        26466 |        52961 |        52961 |        52961 |        52961 |
dtlb.invalidations                               0 |            0 |            0 |            0 |            0 |            0 |            0 |            0 |            0 |            0 |            0 |            0 |            0 |            0 |            0 |            0 |            0 |            0 |            0 |            0 |            0 |            0 |            0 |            0 |            0 |            0 |            0 |            0 |            0 |            0 |            0 |            0 |            0 |            0 |            0 |            0 |            0 |            0 |            0 |            0 |            0 |            0 |            0 |            0 |
dtlb.miss_rate                              0.0001 |       0.0001 |       0.0001 |       0.0001 |       0.0000 |       0.0000 |       0.0000 |       0.0000 |       0.0000 |       0.0000 |       0.0000 |       0.0000 |       0.0000 |       0.0000 |       0.0000 |       0.0000 |       0.0000 |       0.0000 |       0.0000 |       0.0000 |       0.0002 |       0.0002 |       0.0002 |       0.0002 |       0.0002 |       0.0002 |       0.0002 |       0.0002 |       0.0002 |       0.0002 |       0.0002 |       0.0002 |       0.0002 |       0.0002 |       0.0002 |       0.0002 |       0.0002 |       0.0002 |       0.0002 |       0.0002 |       0.0008 |       0.0008 |       0.0008 |       0.0008 |
dtlb.repl_rate                              0.0000 |       0.0000 |       0.0000 |       0.0000 |       0.0000 |       0.0000 |       0.0000 |       0.0000 |       0.0000 |       0.0000 |       0.0000 |       0.0000 |       0.0000 |       0.0000 |       0.0000 |       0.0000 |       0.0000 |       0.0000 |       0.0000 |       0.0000 |       0.0002 |       0.0002 |       0.0002 |       0.0002 |       0.0002 |       0.0002 |       0.0002 |       0.0002 |       0.0002 |       0.0002 |       0.0002 |       0.0002 |       0.0002 |       0.0002 |       0.0002 |       0.0002 |       0.0002 |       0.0002 |       0.0002 |       0.0002 |       0.0008 |       0.0008 |       0.0008 |       0.0008 |
dtlb.wb_rate                                0.0000 |       0.0000 |       0.0000 |       0.0000 |       0.0000 |       0.0000 |       0.0000 |       0.0000 |       0.0000 |       0.0000 |       0.0000 |       0.0000 |       0.0000 |       0.0000 |       0.0000 |       0.0000 |       0.0000 |       0.0000 |       0.0000 |       0.0000 |       0.0001 |       0.0001 |       0.0001 |       0.0001 |       0.0001 |       0.0001 |       0.0001 |       0.0001 |       0.0001 |       0.0001 |       0.0001 |       0.0001 |       0.0001 |       0.0001 |       0.0001 |       0.0001 |       0.0001 |       0.0001 |       0.0001 |       0.0001 |       0.0001 |       0.0001 |       0.0001 |       0.0001 |
dtlb.inv_rate                               0.0000 |       0.0000 |       0.0000 |       0.0000 |       0.0000 |       0.0000 |       0.0000 |       0.0000 |       0.0000 |       0.0000 |       0.0000 |       0.0000 |       0.0000 |       0.0000 |       0.0000 |       0.0000 |       0.0000 |       0.0000 |       0.0000 |       0.0000 |       0.0000 |       0.0000 |       0.0000 |       0.0000 |       0.0000 |       0.0000 |       0.0000 |       0.0000 |       0.0000 |       0.0000 |       0.0000 |       0.0000 |       0.0000 |       0.0000 |       0.0000 |       0.0000 |       0.0000 |       0.0000 |       0.0000 |       0.0000 |       0.0000 |       0.0000 |       0.0000 |       0.0000 |
ld_text_base                            0x00400000 |   0x00400000 |   0x00400000 |   0x00400000 |   0x00400000 |   0x00400000 |   0x00400000 |   0x00400000 |   0x00400000 |   0x00400000 |   0x00400000 |   0x00400000 |   0x00400000 |   0x00400000 |   0x00400000 |   0x00400000 |   0x00400000 |   0x00400000 |   0x00400000 |   0x00400000 |   0x00400000 |   0x00400000 |   0x00400000 |   0x00400000 |   0x00400000 |   0x00400000 |   0x00400000 |   0x00400000 |   0x00400000 |   0x00400000 |   0x00400000 |   0x00400000 |   0x00400000 |   0x00400000 |   0x00400000 |   0x00400000 |   0x00400000 |   0x00400000 |   0x00400000 |   0x00400000 |   0x00400000 |   0x00400000 |   0x00400000 |   0x00400000 |
ld_text_size                                 94704 |        94704 |        94704 |        94704 |        94736 |        94736 |        94736 |        94736 |        94752 |        94752 |        94752 |        94752 |        94768 |        94768 |        94768 |        94768 |        94768 |        94768 |        94768 |        94768 |        94768 |        94768 |        94768 |        94768 |        94768 |        94768 |        94768 |        94768 |        94768 |        94768 |        94768 |        94768 |        94768 |        94768 |        94768 |        94768 |        94768 |        94768 |        94768 |        94768 |        94768 |        94768 |        94768 |        94768 |
ld_data_base                            0x10000000 |   0x10000000 |   0x10000000 |   0x10000000 |   0x10000000 |   0x10000000 |   0x10000000 |   0x10000000 |   0x10000000 |   0x10000000 |   0x10000000 |   0x10000000 |   0x10000000 |   0x10000000 |   0x10000000 |   0x10000000 |   0x10000000 |   0x10000000 |   0x10000000 |   0x10000000 |   0x10000000 |   0x10000000 |   0x10000000 |   0x10000000 |   0x10000000 |   0x10000000 |   0x10000000 |   0x10000000 |   0x10000000 |   0x10000000 |   0x10000000 |   0x10000000 |   0x10000000 |   0x10000000 |   0x10000000 |   0x10000000 |   0x10000000 |   0x10000000 |   0x10000000 |   0x10000000 |   0x10000000 |   0x10000000 |   0x10000000 |   0x10000000 |
ld_data_size                                  8192 |         8192 |         8192 |         8192 |         8192 |         8192 |         8192 |         8192 |         8192 |         8192 |         8192 |         8192 |         8192 |         8192 |         8192 |         8192 |         8192 |         8192 |         8192 |         8192 |         8192 |         8192 |         8192 |         8192 |         8192 |         8192 |         8192 |         8192 |         8192 |         8192 |         8192 |         8192 |         8192 |         8192 |         8192 |         8192 |         8192 |         8192 |         8192 |         8192 |         8192 |         8192 |         8192 |         8192 |
ld_stack_base                           0x7fffc000 |   0x7fffc000 |   0x7fffc000 |   0x7fffc000 |   0x7fffc000 |   0x7fffc000 |   0x7fffc000 |   0x7fffc000 |   0x7fffc000 |   0x7fffc000 |   0x7fffc000 |   0x7fffc000 |   0x7fffc000 |   0x7fffc000 |   0x7fffc000 |   0x7fffc000 |   0x7fffc000 |   0x7fffc000 |   0x7fffc000 |   0x7fffc000 |   0x7fffc000 |   0x7fffc000 |   0x7fffc000 |   0x7fffc000 |   0x7fffc000 |   0x7fffc000 |   0x7fffc000 |   0x7fffc000 |   0x7fffc000 |   0x7fffc000 |   0x7fffc000 |   0x7fffc000 |   0x7fffc000 |   0x7fffc000 |   0x7fffc000 |   0x7fffc000 |   0x7fffc000 |   0x7fffc000 |   0x7fffc000 |   0x7fffc000 |   0x7fffc000 |   0x7fffc000 |   0x7fffc000 |   0x7fffc000 |
ld_stack_size                                16384 |        16384 |        16384 |        16384 |        16384 |        16384 |        16384 |        16384 |        16384 |        16384 |        16384 |        16384 |        16384 |        16384 |        16384 |        16384 |        16384 |        16384 |        16384 |        16384 |        16384 |        16384 |        16384 |        16384 |        16384 |        16384 |        16384 |        16384 |        16384 |        16384 |        16384 |        16384 |        16384 |        16384 |        16384 |        16384 |        16384 |        16384 |        16384 |        16384 |        16384 |        16384 |        16384 |        16384 |
ld_prog_entry                           0x00400140 |   0x00400140 |   0x00400140 |   0x00400140 |   0x00400140 |   0x00400140 |   0x00400140 |   0x00400140 |   0x00400140 |   0x00400140 |   0x00400140 |   0x00400140 |   0x00400140 |   0x00400140 |   0x00400140 |   0x00400140 |   0x00400140 |   0x00400140 |   0x00400140 |   0x00400140 |   0x00400140 |   0x00400140 |   0x00400140 |   0x00400140 |   0x00400140 |   0x00400140 |   0x00400140 |   0x00400140 |   0x00400140 |   0x00400140 |   0x00400140 |   0x00400140 |   0x00400140 |   0x00400140 |   0x00400140 |   0x00400140 |   0x00400140 |   0x00400140 |   0x00400140 |   0x00400140 |   0x00400140 |   0x00400140 |   0x00400140 |   0x00400140 |
ld_environ_base                         0x7fff8000 |   0x7fff8000 |   0x7fff8000 |   0x7fff8000 |   0x7fff8000 |   0x7fff8000 |   0x7fff8000 |   0x7fff8000 |   0x7fff8000 |   0x7fff8000 |   0x7fff8000 |   0x7fff8000 |   0x7fff8000 |   0x7fff8000 |   0x7fff8000 |   0x7fff8000 |   0x7fff8000 |   0x7fff8000 |   0x7fff8000 |   0x7fff8000 |   0x7fff8000 |   0x7fff8000 |   0x7fff8000 |   0x7fff8000 |   0x7fff8000 |   0x7fff8000 |   0x7fff8000 |   0x7fff8000 |   0x7fff8000 |   0x7fff8000 |   0x7fff8000 |   0x7fff8000 |   0x7fff8000 |   0x7fff8000 |   0x7fff8000 |   0x7fff8000 |   0x7fff8000 |   0x7fff8000 |   0x7fff8000 |   0x7fff8000 |   0x7fff8000 |   0x7fff8000 |   0x7fff8000 |   0x7fff8000 |
ld_target_big_endian                             0 |            0 |            0 |            0 |            0 |            0 |            0 |            0 |            0 |            0 |            0 |            0 |            0 |            0 |            0 |            0 |            0 |            0 |            0 |            0 |            0 |            0 |            0 |            0 |            0 |            0 |            0 |            0 |            0 |            0 |            0 |            0 |            0 |            0 |            0 |            0 |            0 |            0 |            0 |            0 |            0 |            0 |            0 |            0 |
mem.page_count                                  40 |           40 |           40 |           40 |           48 |           48 |           48 |           48 |           64 |           64 |           64 |           64 |           96 |           96 |           96 |           96 |          160 |          160 |          160 |          160 |          288 |          288 |          288 |          288 |          544 |          544 |          544 |          544 |         1062 |         1062 |         1062 |         1062 |         2086 |         2086 |         2086 |         2086 |         4140 |         4140 |         4140 |         4140 |         8248 |         8248 |         8248 |         8248 |
mem.page_mem                                  160k |         160k |         160k |         160k |         192k |         192k |         192k |         192k |         256k |         256k |         256k |         256k |         384k |         384k |         384k |         384k |         640k |         640k |         640k |         640k |        1152k |        1152k |        1152k |        1152k |        2176k |        2176k |        2176k |        2176k |        4248k |        4248k |        4248k |        4248k |        8344k |        8344k |        8344k |        8344k |       16560k |       16560k |       16560k |       16560k |       32992k |       32992k |       32992k |       32992k |
mem.ptab_misses                                 40 |           40 |           40 |           40 |           48 |           48 |           48 |           48 |           64 |           64 |           64 |           64 |           96 |           96 |           96 |           96 |          160 |          160 |          160 |          160 |          288 |          288 |          288 |          288 |          544 |          544 |          544 |          544 |         1067 |         1067 |         1067 |         1067 |        78717 |        78717 |        78717 |        78717 |        88823 |        88823 |        88823 |        88823 |        84881 |        84881 |        84881 |        84881 |
mem.ptab_accesses                          4528700 |      4528700 |      4528700 |      4528700 |      8617376 |      8617376 |      8617376 |      8617376 |     18679272 |     18679272 |     18679272 |     18679272 |     37469384 |     37469384 |     37469384 |     37469384 |     82616356 |     82616356 |     82616356 |     82616356 |    167677616 |    167677616 |    167677616 |    167677616 |    354418114 |    354418114 |    354418114 |    354418114 |   1020304312 |   1020304312 |   1020304312 |   1020304312 |   2162199270 |   2162199270 |   2162199270 |   2162199270 |   4726662514 |   4726662514 |   4726662514 |   4726662514 |   9989245450 |   9989245450 |   9989245450 |   9989245450 |
mem.ptab_miss_rate                          0.0000 |       0.0000 |       0.0000 |       0.0000 |       0.0000 |       0.0000 |       0.0000 |       0.0000 |       0.0000 |       0.0000 |       0.0000 |       0.0000 |       0.0000 |       0.0000 |       0.0000 |       0.0000 |       0.0000 |       0.0000 |       0.0000 |       0.0000 |       0.0000 |       0.0000 |       0.0000 |       0.0000 |       0.0000 |       0.0000 |       0.0000 |       0.0000 |       0.0000 |       0.0000 |       0.0000 |       0.0000 |       0.0000 |       0.0000 |       0.0000 |       0.0000 |       0.0000 |       0.0000 |       0.0000 |       0.0000 |       0.0000 |       0.0000 |       0.0000 |       0.0000 |
-------------------------------------------------------------------------------------------------
sim-bpred                                     4096 |         4096 |         4096 |         4096 |         4096 |         4096 |         4096 |         8192 |         8192 |         8192 |         8192 |         8192 |         8192 |         8192 |        16384 |        16384 |        16384 |        16384 |        16384 |        16384 |        16384 |        32768 |        32768 |        32768 |        32768 |        32768 |        32768 |        32768 |        65536 |        65536 |        65536 |        65536 |        65536 |        65536 |        65536 |       131072 |       131072 |       131072 |       131072 |       131072 |       131072 |       131072 |       262144 |       262144 |       262144 |       262144 |       262144 |       262144 |       262144 |       524288 |       524288 |       524288 |       524288 |       524288 |       524288 |       524288 |      1048576 |      1048576 |      1048576 |      1048576 |      1048576 |      1048576 |      1048576 |      2097152 |      2097152 |      2097152 |      2097152 |      2097152 |      2097152 |      2097152 |      4194304 |      4194304 |      4194304 |      4194304 |      4194304 |      4194304 |      4194304 |
-bpred bimod -bpred:bimod 512
-bpred bimod -bpred:bimod 1024
-bpred bimod -bpred:bimod 2048
-bpred 2lev -bpred:2lev 1 512 10 1
-bpred 2lev -bpred:2lev 1 1024 10 1
-bpred 2lev -bpred:2lev 1 2048 10 1
-bpred 2lev -bpred:2lev 1 4096 10 1
-------------------------------------------------------------------------------------------------
sim_num_insn                                863391 |       863391 |       863391 |       863391 |       863391 |       863391 |       863391 |      1755617 |      1755617 |      1755617 |      1755617 |      1755617 |      1755617 |      1755617 |      3964869 |      3964869 |      3964869 |      3964869 |      3964869 |      3964869 |      3964869 |      8069688 |      8069688 |      8069688 |      8069688 |      8069688 |      8069688 |      8069688 |     17984543 |     17984543 |     17984543 |     17984543 |     17984543 |     17984543 |     17984543 |     36582826 |     36582826 |     36582826 |     36582826 |     36582826 |     36582826 |     36582826 |     77488751 |     77488751 |     77488751 |     77488751 |     77488751 |     77488751 |     77488751 |    223408478 |    223408478 |    223408478 |    223408478 |    223408478 |    223408478 |    223408478 |    473225225 |    473225225 |    473225225 |    473225225 |    473225225 |    473225225 |    473225225 |   1035729747 |   1035729747 |   1035729747 |   1035729747 |   1035729747 |   1035729747 |   1035729747 |   2186628773 |   2186628773 |   2186628773 |   2186628773 |   2186628773 |   2186628773 |   2186628773 |
sim_num_refs                                229678 |       229678 |       229678 |       229678 |       229678 |       229678 |       229678 |       473084 |       473084 |       473084 |       473084 |       473084 |       473084 |       473084 |      1052712 |      1052712 |      1052712 |      1052712 |      1052712 |      1052712 |      1052712 |      2172546 |      2172546 |      2172546 |      2172546 |      2172546 |      2172546 |      2172546 |      4785250 |      4785250 |      4785250 |      4785250 |      4785250 |      4785250 |      4785250 |      9857170 |      9857170 |      9857170 |      9857170 |      9857170 |      9857170 |      9857170 |     20891281 |     20891281 |     20891281 |     20891281 |     20891281 |     20891281 |     20891281 |     60946350 |     60946350 |     60946350 |     60946350 |     60946350 |     60946350 |     60946350 |    130163183 |    130163183 |    130163183 |    130163183 |    130163183 |    130163183 |    130163183 |    283191457 |    283191457 |    283191457 |    283191457 |    283191457 |    283191457 |    283191457 |    604296265 |    604296265 |    604296265 |    604296265 |    604296265 |    604296265 |    604296265 |
sim_elapsed_time                                 1 |            1 |            1 |            1 |            1 |            1 |            1 |            1 |            1 |            1 |            1 |            1 |            1 |            1 |            1 |            1 |            1 |            1 |            1 |            1 |            1 |            1 |            1 |            1 |            1 |            1 |            1 |            1 |            2 |            2 |            2 |            2 |            2 |            2 |            2 |            4 |            4 |            4 |            5 |            4 |            4 |            5 |            9 |            9 |            9 |            9 |            9 |            9 |            9 |           27 |           26 |           26 |           27 |           27 |           26 |           27 |           57 |           56 |           56 |           57 |           57 |           57 |           56 |          123 |          122 |          123 |          124 |          125 |          124 |          124 |          260 |          260 |          259 |          271 |          264 |          263 |          264 |
sim_inst_rate                          863391.0000 |  863391.0000 |  863391.0000 |  863391.0000 |  863391.0000 |  863391.0000 |  863391.0000 | 1755617.0000 | 1755617.0000 | 1755617.0000 | 1755617.0000 | 1755617.0000 | 1755617.0000 | 1755617.0000 | 3964869.0000 | 3964869.0000 | 3964869.0000 | 3964869.0000 | 3964869.0000 | 3964869.0000 | 3964869.0000 | 8069688.0000 | 8069688.0000 | 8069688.0000 | 8069688.0000 | 8069688.0000 | 8069688.0000 | 8069688.0000 | 8992271.5000 | 8992271.5000 | 8992271.5000 | 8992271.5000 | 8992271.5000 | 8992271.5000 | 8992271.5000 | 9145706.5000 | 9145706.5000 | 9145706.5000 | 7316565.2000 | 9145706.5000 | 9145706.5000 | 7316565.2000 | 8609861.2222 | 8609861.2222 | 8609861.2222 | 8609861.2222 | 8609861.2222 | 8609861.2222 | 8609861.2222 | 8274388.0741 | 8592633.7692 | 8592633.7692 | 8274388.0741 | 8274388.0741 | 8592633.7692 | 8274388.0741 | 8302196.9298 | 8450450.4464 | 8450450.4464 | 8302196.9298 | 8302196.9298 | 8302196.9298 | 8450450.4464 | 8420567.0488 | 8489588.0902 | 8420567.0488 | 8352659.2500 | 8285837.9760 | 8352659.2500 | 8352659.2500 | 8410110.6654 | 8410110.6654 | 8442582.1351 | 8068740.8598 | 8282684.7462 | 8314177.8441 | 8282684.7462 |
sim_num_branches                            113456 |       113456 |       113456 |       113456 |       113456 |       113456 |       113456 |       236677 |       236677 |       236677 |       236677 |       236677 |       236677 |       236677 |       515663 |       515663 |       515663 |       515663 |       515663 |       515663 |       515663 |      1073049 |      1073049 |      1073049 |      1073049 |      1073049 |      1073049 |      1073049 |      2319975 |      2319975 |      2319975 |      2319975 |      2319975 |      2319975 |      2319975 |      4813554 |      4813554 |      4813554 |      4813554 |      4813554 |      4813554 |      4813554 |     10153242 |     10153242 |     10153242 |     10153242 |     10153242 |     10153242 |     10153242 |     30680538 |     30680538 |     30680538 |     30680538 |     30680538 |     30680538 |     30680538 |     67184643 |     67184643 |     67184643 |     67184643 |     67184643 |     67184643 |     67184643 |    145968665 |    145968665 |    145968665 |    145968665 |    145968665 |    145968665 |    145968665 |    314550055 |    314550055 |    314550055 |    314550055 |    314550055 |    314550055 |    314550055 |
sim_IPB                                     7.6099 |       7.6099 |       7.6099 |       7.6099 |       7.6099 |       7.6099 |       7.6099 |       7.4178 |       7.4178 |       7.4178 |       7.4178 |       7.4178 |       7.4178 |       7.4178 |       7.6889 |       7.6889 |       7.6889 |       7.6889 |       7.6889 |       7.6889 |       7.6889 |       7.5203 |       7.5203 |       7.5203 |       7.5203 |       7.5203 |       7.5203 |       7.5203 |       7.7520 |       7.7520 |       7.7520 |       7.7520 |       7.7520 |       7.7520 |       7.7520 |       7.6000 |       7.6000 |       7.6000 |       7.6000 |       7.6000 |       7.6000 |       7.6000 |       7.6319 |       7.6319 |       7.6319 |       7.6319 |       7.6319 |       7.6319 |       7.6319 |       7.2818 |       7.2818 |       7.2818 |       7.2818 |       7.2818 |       7.2818 |       7.2818 |       7.0437 |       7.0437 |       7.0437 |       7.0437 |       7.0437 |       7.0437 |       7.0437 |       7.0956 |       7.0956 |       7.0956 |       7.0956 |       7.0956 |       7.0956 |       7.0956 |       6.9516 |       6.9516 |       6.9516 |       6.9516 |       6.9516 |       6.9516 |       6.9516 |
bpred_bimod.lookups                         113456 |       113456 |       113456 |xxxxxxxxxxxxx |xxxxxxxxxxxxx |xxxxxxxxxxxxx |xxxxxxxxxxxxx |       236677 |       236677 |       236677 |xxxxxxxxxxxxx |xxxxxxxxxxxxx |xxxxxxxxxxxxx |xxxxxxxxxxxxx |       515663 |       515663 |       515663 |xxxxxxxxxxxxx |xxxxxxxxxxxxx |xxxxxxxxxxxxx |xxxxxxxxxxxxx |      1073049 |      1073049 |      1073049 |xxxxxxxxxxxxx |xxxxxxxxxxxxx |xxxxxxxxxxxxx |xxxxxxxxxxxxx |      2319975 |      2319975 |      2319975 |xxxxxxxxxxxxx |xxxxxxxxxxxxx |xxxxxxxxxxxxx |xxxxxxxxxxxxx |      4813554 |      4813554 |      4813554 |xxxxxxxxxxxxx |xxxxxxxxxxxxx |xxxxxxxxxxxxx |xxxxxxxxxxxxx |     10153242 |     10153242 |     10153242 |xxxxxxxxxxxxx |xxxxxxxxxxxxx |xxxxxxxxxxxxx |xxxxxxxxxxxxx |     30680538 |     30680538 |     30680538 |xxxxxxxxxxxxx |xxxxxxxxxxxxx |xxxxxxxxxxxxx |xxxxxxxxxxxxx |     67184643 |     67184643 |     67184643 |xxxxxxxxxxxxx |xxxxxxxxxxxxx |xxxxxxxxxxxxx |xxxxxxxxxxxxx |    145968665 |    145968665 |    145968665 |xxxxxxxxxxxxx |xxxxxxxxxxxxx |xxxxxxxxxxxxx |xxxxxxxxxxxxx |    314550055 |    314550055 |    314550055 |
bpred_bimod.updates                         113456 |       113456 |       113456 |xxxxxxxxxxxxx |xxxxxxxxxxxxx |xxxxxxxxxxxxx |xxxxxxxxxxxxx |       236677 |       236677 |       236677 |xxxxxxxxxxxxx |xxxxxxxxxxxxx |xxxxxxxxxxxxx |xxxxxxxxxxxxx |       515663 |       515663 |       515663 |xxxxxxxxxxxxx |xxxxxxxxxxxxx |xxxxxxxxxxxxx |xxxxxxxxxxxxx |      1073049 |      1073049 |      1073049 |xxxxxxxxxxxxx |xxxxxxxxxxxxx |xxxxxxxxxxxxx |xxxxxxxxxxxxx |      2319975 |      2319975 |      2319975 |xxxxxxxxxxxxx |xxxxxxxxxxxxx |xxxxxxxxxxxxx |xxxxxxxxxxxxx |      4813554 |      4813554 |      4813554 |xxxxxxxxxxxxx |xxxxxxxxxxxxx |xxxxxxxxxxxxx |xxxxxxxxxxxxx |     10153242 |     10153242 |     10153242 |xxxxxxxxxxxxx |xxxxxxxxxxxxx |xxxxxxxxxxxxx |xxxxxxxxxxxxx |     30680538 |     30680538 |     30680538 |xxxxxxxxxxxxx |xxxxxxxxxxxxx |xxxxxxxxxxxxx |xxxxxxxxxxxxx |     67184643 |     67184643 |     67184643 |xxxxxxxxxxxxx |xxxxxxxxxxxxx |xxxxxxxxxxxxx |xxxxxxxxxxxxx |    145968665 |    145968665 |    145968665 |xxxxxxxxxxxxx |xxxxxxxxxxxxx |xxxxxxxxxxxxx |xxxxxxxxxxxxx |    314550055 |    314550055 |    314550055 |
bpred_bimod.addr_hits                        87798 |        87808 |        87814 |xxxxxxxxxxxxx |xxxxxxxxxxxxx |xxxxxxxxxxxxx |xxxxxxxxxxxxx |       184968 |       184972 |       184975 |xxxxxxxxxxxxx |xxxxxxxxxxxxx |xxxxxxxxxxxxx |xxxxxxxxxxxxx |       397366 |       397386 |       397390 |xxxxxxxxxxxxx |xxxxxxxxxxxxx |xxxxxxxxxxxxx |xxxxxxxxxxxxx |       834236 |       834255 |       834259 |xxxxxxxxxxxxx |xxxxxxxxxxxxx |xxxxxxxxxxxxx |xxxxxxxxxxxxx |      1783057 |      1783133 |      1783137 |xxxxxxxxxxxxx |xxxxxxxxxxxxx |xxxxxxxxxxxxx |xxxxxxxxxxxxx |      3728684 |      3728752 |      3728756 |xxxxxxxxxxxxx |xxxxxxxxxxxxx |xxxxxxxxxxxxx |xxxxxxxxxxxxx |      7851595 |      7851692 |      7851757 |xxxxxxxxxxxxx |xxxxxxxxxxxxx |xxxxxxxxxxxxx |xxxxxxxxxxxxx |     24455468 |     24456012 |     24456015 |xxxxxxxxxxxxx |xxxxxxxxxxxxx |xxxxxxxxxxxxx |xxxxxxxxxxxxx |     54432452 |     54432781 |     54432797 |xxxxxxxxxxxxx |xxxxxxxxxxxxx |xxxxxxxxxxxxx |xxxxxxxxxxxxx |    116893861 |    116895951 |    116895957 |xxxxxxxxxxxxx |xxxxxxxxxxxxx |xxxxxxxxxxxxx |xxxxxxxxxxxxx |    252084457 |    252085895 |    252085890 |
bpred_bimod.dir_hits                         87945 |        87954 |        87959 |xxxxxxxxxxxxx |xxxxxxxxxxxxx |xxxxxxxxxxxxx |xxxxxxxxxxxxx |       185120 |       185121 |       185124 |xxxxxxxxxxxxx |xxxxxxxxxxxxx |xxxxxxxxxxxxx |xxxxxxxxxxxxx |       397517 |       397531 |       397535 |xxxxxxxxxxxxx |xxxxxxxxxxxxx |xxxxxxxxxxxxx |xxxxxxxxxxxxx |       834384 |       834402 |       834406 |xxxxxxxxxxxxx |xxxxxxxxxxxxx |xxxxxxxxxxxxx |xxxxxxxxxxxxx |      1783203 |      1783278 |      1783282 |xxxxxxxxxxxxx |xxxxxxxxxxxxx |xxxxxxxxxxxxx |xxxxxxxxxxxxx |      3728835 |      3728902 |      3728905 |xxxxxxxxxxxxx |xxxxxxxxxxxxx |xxxxxxxxxxxxx |xxxxxxxxxxxxx |      7851747 |      7851844 |      7851909 |xxxxxxxxxxxxx |xxxxxxxxxxxxx |xxxxxxxxxxxxx |xxxxxxxxxxxxx |     24455690 |     24456232 |     24456234 |xxxxxxxxxxxxx |xxxxxxxxxxxxx |xxxxxxxxxxxxx |xxxxxxxxxxxxx |     54432684 |     54433011 |     54433025 |xxxxxxxxxxxxx |xxxxxxxxxxxxx |xxxxxxxxxxxxx |xxxxxxxxxxxxx |    116894095 |    116896182 |    116896186 |xxxxxxxxxxxxx |xxxxxxxxxxxxx |xxxxxxxxxxxxx |xxxxxxxxxxxxx |    252084695 |    252086130 |    252086124 |
bpred_bimod.misses                           25511 |        25502 |        25497 |xxxxxxxxxxxxx |xxxxxxxxxxxxx |xxxxxxxxxxxxx |xxxxxxxxxxxxx |        51557 |        51556 |        51553 |xxxxxxxxxxxxx |xxxxxxxxxxxxx |xxxxxxxxxxxxx |xxxxxxxxxxxxx |       118146 |       118132 |       118128 |xxxxxxxxxxxxx |xxxxxxxxxxxxx |xxxxxxxxxxxxx |xxxxxxxxxxxxx |       238665 |       238647 |       238643 |xxxxxxxxxxxxx |xxxxxxxxxxxxx |xxxxxxxxxxxxx |xxxxxxxxxxxxx |       536772 |       536697 |       536693 |xxxxxxxxxxxxx |xxxxxxxxxxxxx |xxxxxxxxxxxxx |xxxxxxxxxxxxx |      1084719 |      1084652 |      1084649 |xxxxxxxxxxxxx |xxxxxxxxxxxxx |xxxxxxxxxxxxx |xxxxxxxxxxxxx |      2301495 |      2301398 |      2301333 |xxxxxxxxxxxxx |xxxxxxxxxxxxx |xxxxxxxxxxxxx |xxxxxxxxxxxxx |      6224848 |      6224306 |      6224304 |xxxxxxxxxxxxx |xxxxxxxxxxxxx |xxxxxxxxxxxxx |xxxxxxxxxxxxx |     12751959 |     12751632 |     12751618 |xxxxxxxxxxxxx |xxxxxxxxxxxxx |xxxxxxxxxxxxx |xxxxxxxxxxxxx |     29074570 |     29072483 |     29072479 |xxxxxxxxxxxxx |xxxxxxxxxxxxx |xxxxxxxxxxxxx |xxxxxxxxxxxxx |     62465360 |     62463925 |     62463931 |
bpred_bimod.jr_hits                             79 |           79 |           79 |xxxxxxxxxxxxx |xxxxxxxxxxxxx |xxxxxxxxxxxxx |xxxxxxxxxxxxx |           87 |           87 |           87 |xxxxxxxxxxxxx |xxxxxxxxxxxxx |xxxxxxxxxxxxx |xxxxxxxxxxxxx |          103 |          103 |          103 |xxxxxxxxxxxxx |xxxxxxxxxxxxx |xxxxxxxxxxxxx |xxxxxxxxxxxxx |          135 |          135 |          135 |xxxxxxxxxxxxx |xxxxxxxxxxxxx |xxxxxxxxxxxxx |xxxxxxxxxxxxx |          199 |          199 |          199 |xxxxxxxxxxxxx |xxxxxxxxxxxxx |xxxxxxxxxxxxx |xxxxxxxxxxxxx |          327 |          327 |          327 |xxxxxxxxxxxxx |xxxxxxxxxxxxx |xxxxxxxxxxxxx |xxxxxxxxxxxxx |          583 |          583 |          583 |xxxxxxxxxxxxx |xxxxxxxxxxxxx |xxxxxxxxxxxxx |xxxxxxxxxxxxx |       525413 |       525413 |       525413 |xxxxxxxxxxxxx |xxxxxxxxxxxxx |xxxxxxxxxxxxx |xxxxxxxxxxxxx |      1050727 |      1050727 |      1050727 |xxxxxxxxxxxxx |xxxxxxxxxxxxx |xxxxxxxxxxxxx |xxxxxxxxxxxxx |      2101355 |      2101355 |      2101355 |xxxxxxxxxxxxx |xxxxxxxxxxxxx |xxxxxxxxxxxxx |xxxxxxxxxxxxx |      4202611 |      4202611 |      4202611 |
bpred_bimod.jr_seen                             80 |           80 |           80 |xxxxxxxxxxxxx |xxxxxxxxxxxxx |xxxxxxxxxxxxx |xxxxxxxxxxxxx |           88 |           88 |           88 |xxxxxxxxxxxxx |xxxxxxxxxxxxx |xxxxxxxxxxxxx |xxxxxxxxxxxxx |          104 |          104 |          104 |xxxxxxxxxxxxx |xxxxxxxxxxxxx |xxxxxxxxxxxxx |xxxxxxxxxxxxx |          136 |          136 |          136 |xxxxxxxxxxxxx |xxxxxxxxxxxxx |xxxxxxxxxxxxx |xxxxxxxxxxxxx |          200 |          200 |          200 |xxxxxxxxxxxxx |xxxxxxxxxxxxx |xxxxxxxxxxxxx |xxxxxxxxxxxxx |          328 |          328 |          328 |xxxxxxxxxxxxx |xxxxxxxxxxxxx |xxxxxxxxxxxxx |xxxxxxxxxxxxx |          584 |          584 |          584 |xxxxxxxxxxxxx |xxxxxxxxxxxxx |xxxxxxxxxxxxx |xxxxxxxxxxxxx |       525414 |       525414 |       525414 |xxxxxxxxxxxxx |xxxxxxxxxxxxx |xxxxxxxxxxxxx |xxxxxxxxxxxxx |      1050728 |      1050728 |      1050728 |xxxxxxxxxxxxx |xxxxxxxxxxxxx |xxxxxxxxxxxxx |xxxxxxxxxxxxx |      2101356 |      2101356 |      2101356 |xxxxxxxxxxxxx |xxxxxxxxxxxxx |xxxxxxxxxxxxx |xxxxxxxxxxxxx |      4202612 |      4202612 |      4202612 |
bpred_bimod.jr_non_ras_hits.PP                   0 |            0 |            0 |xxxxxxxxxxxxx |xxxxxxxxxxxxx |xxxxxxxxxxxxx |xxxxxxxxxxxxx |            0 |            0 |            0 |xxxxxxxxxxxxx |xxxxxxxxxxxxx |xxxxxxxxxxxxx |xxxxxxxxxxxxx |            0 |            0 |            0 |xxxxxxxxxxxxx |xxxxxxxxxxxxx |xxxxxxxxxxxxx |xxxxxxxxxxxxx |            0 |            0 |            0 |xxxxxxxxxxxxx |xxxxxxxxxxxxx |xxxxxxxxxxxxx |xxxxxxxxxxxxx |            0 |            0 |            0 |xxxxxxxxxxxxx |xxxxxxxxxxxxx |xxxxxxxxxxxxx |xxxxxxxxxxxxx |            0 |            0 |            0 |xxxxxxxxxxxxx |xxxxxxxxxxxxx |xxxxxxxxxxxxx |xxxxxxxxxxxxx |            0 |            0 |            0 |xxxxxxxxxxxxx |xxxxxxxxxxxxx |xxxxxxxxxxxxx |xxxxxxxxxxxxx |            0 |            0 |            0 |xxxxxxxxxxxxx |xxxxxxxxxxxxx |xxxxxxxxxxxxx |xxxxxxxxxxxxx |            0 |            0 |            0 |xxxxxxxxxxxxx |xxxxxxxxxxxxx |xxxxxxxxxxxxx |xxxxxxxxxxxxx |            0 |            0 |            0 |xxxxxxxxxxxxx |xxxxxxxxxxxxx |xxxxxxxxxxxxx |xxxxxxxxxxxxx |            0 |            0 |            0 |
bpred_bimod.jr_non_ras_seen.PP                   0 |            0 |            0 |xxxxxxxxxxxxx |xxxxxxxxxxxxx |xxxxxxxxxxxxx |xxxxxxxxxxxxx |            0 |            0 |            0 |xxxxxxxxxxxxx |xxxxxxxxxxxxx |xxxxxxxxxxxxx |xxxxxxxxxxxxx |            0 |            0 |            0 |xxxxxxxxxxxxx |xxxxxxxxxxxxx |xxxxxxxxxxxxx |xxxxxxxxxxxxx |            0 |            0 |            0 |xxxxxxxxxxxxx |xxxxxxxxxxxxx |xxxxxxxxxxxxx |xxxxxxxxxxxxx |            0 |            0 |            0 |xxxxxxxxxxxxx |xxxxxxxxxxxxx |xxxxxxxxxxxxx |xxxxxxxxxxxxx |            0 |            0 |            0 |xxxxxxxxxxxxx |xxxxxxxxxxxxx |xxxxxxxxxxxxx |xxxxxxxxxxxxx |            0 |            0 |            0 |xxxxxxxxxxxxx |xxxxxxxxxxxxx |xxxxxxxxxxxxx |xxxxxxxxxxxxx |            1 |            1 |            1 |xxxxxxxxxxxxx |xxxxxxxxxxxxx |xxxxxxxxxxxxx |xxxxxxxxxxxxx |            1 |            1 |            1 |xxxxxxxxxxxxx |xxxxxxxxxxxxx |xxxxxxxxxxxxx |xxxxxxxxxxxxx |            1 |            1 |            1 |xxxxxxxxxxxxx |xxxxxxxxxxxxx |xxxxxxxxxxxxx |xxxxxxxxxxxxx |            1 |            1 |            1 |
bpred_bimod.bpred_addr_rate                 0.7739 |       0.7739 |       0.7740 |xxxxxxxxxxxxx |xxxxxxxxxxxxx |xxxxxxxxxxxxx |xxxxxxxxxxxxx |       0.7815 |       0.7815 |       0.7816 |xxxxxxxxxxxxx |xxxxxxxxxxxxx |xxxxxxxxxxxxx |xxxxxxxxxxxxx |       0.7706 |       0.7706 |       0.7706 |xxxxxxxxxxxxx |xxxxxxxxxxxxx |xxxxxxxxxxxxx |xxxxxxxxxxxxx |       0.7774 |       0.7775 |       0.7775 |xxxxxxxxxxxxx |xxxxxxxxxxxxx |xxxxxxxxxxxxx |xxxxxxxxxxxxx |       0.7686 |       0.7686 |       0.7686 |xxxxxxxxxxxxx |xxxxxxxxxxxxx |xxxxxxxxxxxxx |xxxxxxxxxxxxx |       0.7746 |       0.7746 |       0.7746 |xxxxxxxxxxxxx |xxxxxxxxxxxxx |xxxxxxxxxxxxx |xxxxxxxxxxxxx |       0.7733 |       0.7733 |       0.7733 |xxxxxxxxxxxxx |xxxxxxxxxxxxx |xxxxxxxxxxxxx |xxxxxxxxxxxxx |       0.7971 |       0.7971 |       0.7971 |xxxxxxxxxxxxx |xxxxxxxxxxxxx |xxxxxxxxxxxxx |xxxxxxxxxxxxx |       0.8102 |       0.8102 |       0.8102 |xxxxxxxxxxxxx |xxxxxxxxxxxxx |xxxxxxxxxxxxx |xxxxxxxxxxxxx |       0.8008 |       0.8008 |       0.8008 |xxxxxxxxxxxxx |xxxxxxxxxxxxx |xxxxxxxxxxxxx |xxxxxxxxxxxxx |       0.8014 |       0.8014 |       0.8014 |
bpred_bimod.bpred_dir_rate                  0.7751 |       0.7752 |       0.7753 |xxxxxxxxxxxxx |xxxxxxxxxxxxx |xxxxxxxxxxxxx |xxxxxxxxxxxxx |       0.7822 |       0.7822 |       0.7822 |xxxxxxxxxxxxx |xxxxxxxxxxxxx |xxxxxxxxxxxxx |xxxxxxxxxxxxx |       0.7709 |       0.7709 |       0.7709 |xxxxxxxxxxxxx |xxxxxxxxxxxxx |xxxxxxxxxxxxx |xxxxxxxxxxxxx |       0.7776 |       0.7776 |       0.7776 |xxxxxxxxxxxxx |xxxxxxxxxxxxx |xxxxxxxxxxxxx |xxxxxxxxxxxxx |       0.7686 |       0.7687 |       0.7687 |xxxxxxxxxxxxx |xxxxxxxxxxxxx |xxxxxxxxxxxxx |xxxxxxxxxxxxx |       0.7747 |       0.7747 |       0.7747 |xxxxxxxxxxxxx |xxxxxxxxxxxxx |xxxxxxxxxxxxx |xxxxxxxxxxxxx |       0.7733 |       0.7733 |       0.7733 |xxxxxxxxxxxxx |xxxxxxxxxxxxx |xxxxxxxxxxxxx |xxxxxxxxxxxxx |       0.7971 |       0.7971 |       0.7971 |xxxxxxxxxxxxx |xxxxxxxxxxxxx |xxxxxxxxxxxxx |xxxxxxxxxxxxx |       0.8102 |       0.8102 |       0.8102 |xxxxxxxxxxxxx |xxxxxxxxxxxxx |xxxxxxxxxxxxx |xxxxxxxxxxxxx |       0.8008 |       0.8008 |       0.8008 |xxxxxxxxxxxxx |xxxxxxxxxxxxx |xxxxxxxxxxxxx |xxxxxxxxxxxxx |       0.8014 |       0.8014 |       0.8014 |
bpred_bimod.bpred_jr_rate                   0.9875 |       0.9875 |       0.9875 |xxxxxxxxxxxxx |xxxxxxxxxxxxx |xxxxxxxxxxxxx |xxxxxxxxxxxxx |       0.9886 |       0.9886 |       0.9886 |xxxxxxxxxxxxx |xxxxxxxxxxxxx |xxxxxxxxxxxxx |xxxxxxxxxxxxx |       0.9904 |       0.9904 |       0.9904 |xxxxxxxxxxxxx |xxxxxxxxxxxxx |xxxxxxxxxxxxx |xxxxxxxxxxxxx |       0.9926 |       0.9926 |       0.9926 |xxxxxxxxxxxxx |xxxxxxxxxxxxx |xxxxxxxxxxxxx |xxxxxxxxxxxxx |       0.9950 |       0.9950 |       0.9950 |xxxxxxxxxxxxx |xxxxxxxxxxxxx |xxxxxxxxxxxxx |xxxxxxxxxxxxx |       0.9970 |       0.9970 |       0.9970 |xxxxxxxxxxxxx |xxxxxxxxxxxxx |xxxxxxxxxxxxx |xxxxxxxxxxxxx |       0.9983 |       0.9983 |       0.9983 |xxxxxxxxxxxxx |xxxxxxxxxxxxx |xxxxxxxxxxxxx |xxxxxxxxxxxxx |       1.0000 |       1.0000 |       1.0000 |xxxxxxxxxxxxx |xxxxxxxxxxxxx |xxxxxxxxxxxxx |xxxxxxxxxxxxx |       1.0000 |       1.0000 |       1.0000 |xxxxxxxxxxxxx |xxxxxxxxxxxxx |xxxxxxxxxxxxx |xxxxxxxxxxxxx |       1.0000 |       1.0000 |       1.0000 |xxxxxxxxxxxxx |xxxxxxxxxxxxx |xxxxxxxxxxxxx |xxxxxxxxxxxxx |       1.0000 |       1.0000 |       1.0000 |
bpred_bimod.bpred_jr_non_ras_rate.PP       <error: |      <error: |      <error: |xxxxxxxxxxxxx |xxxxxxxxxxxxx |xxxxxxxxxxxxx |xxxxxxxxxxxxx |      <error: |      <error: |      <error: |xxxxxxxxxxxxx |xxxxxxxxxxxxx |xxxxxxxxxxxxx |xxxxxxxxxxxxx |      <error: |      <error: |      <error: |xxxxxxxxxxxxx |xxxxxxxxxxxxx |xxxxxxxxxxxxx |xxxxxxxxxxxxx |      <error: |      <error: |      <error: |xxxxxxxxxxxxx |xxxxxxxxxxxxx |xxxxxxxxxxxxx |xxxxxxxxxxxxx |      <error: |      <error: |      <error: |xxxxxxxxxxxxx |xxxxxxxxxxxxx |xxxxxxxxxxxxx |xxxxxxxxxxxxx |      <error: |      <error: |      <error: |xxxxxxxxxxxxx |xxxxxxxxxxxxx |xxxxxxxxxxxxx |xxxxxxxxxxxxx |      <error: |      <error: |      <error: |xxxxxxxxxxxxx |xxxxxxxxxxxxx |xxxxxxxxxxxxx |xxxxxxxxxxxxx |       0.0000 |       0.0000 |       0.0000 |xxxxxxxxxxxxx |xxxxxxxxxxxxx |xxxxxxxxxxxxx |xxxxxxxxxxxxx |       0.0000 |       0.0000 |       0.0000 |xxxxxxxxxxxxx |xxxxxxxxxxxxx |xxxxxxxxxxxxx |xxxxxxxxxxxxx |       0.0000 |       0.0000 |       0.0000 |xxxxxxxxxxxxx |xxxxxxxxxxxxx |xxxxxxxxxxxxx |xxxxxxxxxxxxx |       0.0000 |       0.0000 |       0.0000 |
bpred_bimod.retstack_pushes                     82 |           82 |           82 |xxxxxxxxxxxxx |xxxxxxxxxxxxx |xxxxxxxxxxxxx |xxxxxxxxxxxxx |           90 |           90 |           90 |xxxxxxxxxxxxx |xxxxxxxxxxxxx |xxxxxxxxxxxxx |xxxxxxxxxxxxx |          106 |          106 |          106 |xxxxxxxxxxxxx |xxxxxxxxxxxxx |xxxxxxxxxxxxx |xxxxxxxxxxxxx |          138 |          138 |          138 |xxxxxxxxxxxxx |xxxxxxxxxxxxx |xxxxxxxxxxxxx |xxxxxxxxxxxxx |          202 |          202 |          202 |xxxxxxxxxxxxx |xxxxxxxxxxxxx |xxxxxxxxxxxxx |xxxxxxxxxxxxx |          330 |          330 |          330 |xxxxxxxxxxxxx |xxxxxxxxxxxxx |xxxxxxxxxxxxx |xxxxxxxxxxxxx |          586 |          586 |          586 |xxxxxxxxxxxxx |xxxxxxxxxxxxx |xxxxxxxxxxxxx |xxxxxxxxxxxxx |       525415 |       525415 |       525415 |xxxxxxxxxxxxx |xxxxxxxxxxxxx |xxxxxxxxxxxxx |xxxxxxxxxxxxx |      1050729 |      1050729 |      1050729 |xxxxxxxxxxxxx |xxxxxxxxxxxxx |xxxxxxxxxxxxx |xxxxxxxxxxxxx |      2101357 |      2101357 |      2101357 |xxxxxxxxxxxxx |xxxxxxxxxxxxx |xxxxxxxxxxxxx |xxxxxxxxxxxxx |      4202613 |      4202613 |      4202613 |
bpred_bimod.retstack_pops                       80 |           80 |           80 |xxxxxxxxxxxxx |xxxxxxxxxxxxx |xxxxxxxxxxxxx |xxxxxxxxxxxxx |           88 |           88 |           88 |xxxxxxxxxxxxx |xxxxxxxxxxxxx |xxxxxxxxxxxxx |xxxxxxxxxxxxx |          104 |          104 |          104 |xxxxxxxxxxxxx |xxxxxxxxxxxxx |xxxxxxxxxxxxx |xxxxxxxxxxxxx |          136 |          136 |          136 |xxxxxxxxxxxxx |xxxxxxxxxxxxx |xxxxxxxxxxxxx |xxxxxxxxxxxxx |          200 |          200 |          200 |xxxxxxxxxxxxx |xxxxxxxxxxxxx |xxxxxxxxxxxxx |xxxxxxxxxxxxx |          328 |          328 |          328 |xxxxxxxxxxxxx |xxxxxxxxxxxxx |xxxxxxxxxxxxx |xxxxxxxxxxxxx |          584 |          584 |          584 |xxxxxxxxxxxxx |xxxxxxxxxxxxx |xxxxxxxxxxxxx |xxxxxxxxxxxxx |       525413 |       525413 |       525413 |xxxxxxxxxxxxx |xxxxxxxxxxxxx |xxxxxxxxxxxxx |xxxxxxxxxxxxx |      1050727 |      1050727 |      1050727 |xxxxxxxxxxxxx |xxxxxxxxxxxxx |xxxxxxxxxxxxx |xxxxxxxxxxxxx |      2101355 |      2101355 |      2101355 |xxxxxxxxxxxxx |xxxxxxxxxxxxx |xxxxxxxxxxxxx |xxxxxxxxxxxxx |      4202611 |      4202611 |      4202611 |
bpred_bimod.used_ras.PP                         80 |           80 |           80 |xxxxxxxxxxxxx |xxxxxxxxxxxxx |xxxxxxxxxxxxx |xxxxxxxxxxxxx |           88 |           88 |           88 |xxxxxxxxxxxxx |xxxxxxxxxxxxx |xxxxxxxxxxxxx |xxxxxxxxxxxxx |          104 |          104 |          104 |xxxxxxxxxxxxx |xxxxxxxxxxxxx |xxxxxxxxxxxxx |xxxxxxxxxxxxx |          136 |          136 |          136 |xxxxxxxxxxxxx |xxxxxxxxxxxxx |xxxxxxxxxxxxx |xxxxxxxxxxxxx |          200 |          200 |          200 |xxxxxxxxxxxxx |xxxxxxxxxxxxx |xxxxxxxxxxxxx |xxxxxxxxxxxxx |          328 |          328 |          328 |xxxxxxxxxxxxx |xxxxxxxxxxxxx |xxxxxxxxxxxxx |xxxxxxxxxxxxx |          584 |          584 |          584 |xxxxxxxxxxxxx |xxxxxxxxxxxxx |xxxxxxxxxxxxx |xxxxxxxxxxxxx |       525413 |       525413 |       525413 |xxxxxxxxxxxxx |xxxxxxxxxxxxx |xxxxxxxxxxxxx |xxxxxxxxxxxxx |      1050727 |      1050727 |      1050727 |xxxxxxxxxxxxx |xxxxxxxxxxxxx |xxxxxxxxxxxxx |xxxxxxxxxxxxx |      2101355 |      2101355 |      2101355 |xxxxxxxxxxxxx |xxxxxxxxxxxxx |xxxxxxxxxxxxx |xxxxxxxxxxxxx |      4202611 |      4202611 |      4202611 |
bpred_bimod.ras_hits.PP                         79 |           79 |           79 |xxxxxxxxxxxxx |xxxxxxxxxxxxx |xxxxxxxxxxxxx |xxxxxxxxxxxxx |           87 |           87 |           87 |xxxxxxxxxxxxx |xxxxxxxxxxxxx |xxxxxxxxxxxxx |xxxxxxxxxxxxx |          103 |          103 |          103 |xxxxxxxxxxxxx |xxxxxxxxxxxxx |xxxxxxxxxxxxx |xxxxxxxxxxxxx |          135 |          135 |          135 |xxxxxxxxxxxxx |xxxxxxxxxxxxx |xxxxxxxxxxxxx |xxxxxxxxxxxxx |          199 |          199 |          199 |xxxxxxxxxxxxx |xxxxxxxxxxxxx |xxxxxxxxxxxxx |xxxxxxxxxxxxx |          327 |          327 |          327 |xxxxxxxxxxxxx |xxxxxxxxxxxxx |xxxxxxxxxxxxx |xxxxxxxxxxxxx |          583 |          583 |          583 |xxxxxxxxxxxxx |xxxxxxxxxxxxx |xxxxxxxxxxxxx |xxxxxxxxxxxxx |       525413 |       525413 |       525413 |xxxxxxxxxxxxx |xxxxxxxxxxxxx |xxxxxxxxxxxxx |xxxxxxxxxxxxx |      1050727 |      1050727 |      1050727 |xxxxxxxxxxxxx |xxxxxxxxxxxxx |xxxxxxxxxxxxx |xxxxxxxxxxxxx |      2101355 |      2101355 |      2101355 |xxxxxxxxxxxxx |xxxxxxxxxxxxx |xxxxxxxxxxxxx |xxxxxxxxxxxxx |      4202611 |      4202611 |      4202611 |
bpred_bimod.ras_rate.PP                     0.9875 |       0.9875 |       0.9875 |xxxxxxxxxxxxx |xxxxxxxxxxxxx |xxxxxxxxxxxxx |xxxxxxxxxxxxx |       0.9886 |       0.9886 |       0.9886 |xxxxxxxxxxxxx |xxxxxxxxxxxxx |xxxxxxxxxxxxx |xxxxxxxxxxxxx |       0.9904 |       0.9904 |       0.9904 |xxxxxxxxxxxxx |xxxxxxxxxxxxx |xxxxxxxxxxxxx |xxxxxxxxxxxxx |       0.9926 |       0.9926 |       0.9926 |xxxxxxxxxxxxx |xxxxxxxxxxxxx |xxxxxxxxxxxxx |xxxxxxxxxxxxx |       0.9950 |       0.9950 |       0.9950 |xxxxxxxxxxxxx |xxxxxxxxxxxxx |xxxxxxxxxxxxx |xxxxxxxxxxxxx |       0.9970 |       0.9970 |       0.9970 |xxxxxxxxxxxxx |xxxxxxxxxxxxx |xxxxxxxxxxxxx |xxxxxxxxxxxxx |       0.9983 |       0.9983 |       0.9983 |xxxxxxxxxxxxx |xxxxxxxxxxxxx |xxxxxxxxxxxxx |xxxxxxxxxxxxx |       1.0000 |       1.0000 |       1.0000 |xxxxxxxxxxxxx |xxxxxxxxxxxxx |xxxxxxxxxxxxx |xxxxxxxxxxxxx |       1.0000 |       1.0000 |       1.0000 |xxxxxxxxxxxxx |xxxxxxxxxxxxx |xxxxxxxxxxxxx |xxxxxxxxxxxxx |       1.0000 |       1.0000 |       1.0000 |xxxxxxxxxxxxx |xxxxxxxxxxxxx |xxxxxxxxxxxxx |xxxxxxxxxxxxx |       1.0000 |       1.0000 |       1.0000 |
bpred_2lev.lookups                   xxxxxxxxxxxxx |xxxxxxxxxxxxx |xxxxxxxxxxxxx |       113456 |       113456 |       113456 |       113456 |xxxxxxxxxxxxx |xxxxxxxxxxxxx |xxxxxxxxxxxxx |       236677 |       236677 |       236677 |       236677 |xxxxxxxxxxxxx |xxxxxxxxxxxxx |xxxxxxxxxxxxx |       515663 |       515663 |       515663 |       515663 |xxxxxxxxxxxxx |xxxxxxxxxxxxx |xxxxxxxxxxxxx |      1073049 |      1073049 |      1073049 |      1073049 |xxxxxxxxxxxxx |xxxxxxxxxxxxx |xxxxxxxxxxxxx |      2319975 |      2319975 |      2319975 |      2319975 |xxxxxxxxxxxxx |xxxxxxxxxxxxx |xxxxxxxxxxxxx |      4813554 |      4813554 |      4813554 |      4813554 |xxxxxxxxxxxxx |xxxxxxxxxxxxx |xxxxxxxxxxxxx |     10153242 |     10153242 |     10153242 |     10153242 |xxxxxxxxxxxxx |xxxxxxxxxxxxx |xxxxxxxxxxxxx |     30680538 |     30680538 |     30680538 |     30680538 |xxxxxxxxxxxxx |xxxxxxxxxxxxx |xxxxxxxxxxxxx |     67184643 |     67184643 |     67184643 |     67184643 |xxxxxxxxxxxxx |xxxxxxxxxxxxx |xxxxxxxxxxxxx |    145968665 |    145968665 |    145968665 |    145968665 |xxxxxxxxxxxxx |xxxxxxxxxxxxx |xxxxxxxxxxxxx |    314550055 |    314550055 |    314550055 |    314550055 |
[...]
bpred_2lev.retstack_pushes           xxxxxxxxxxxxx |xxxxxxxxxxxxx |xxxxxxxxxxxxx |           82 |           82 |           82 |           82 |xxxxxxxxxxxxx |xxxxxxxxxxxxx |xxxxxxxxxxxxx |           90 |           90 |           90 |           90 |xxxxxxxxxxxxx |xxxxxxxxxxxxx |xxxxxxxxxxxxx |          106 |          106 |          106 |          106 |xxxxxxxxxxxxx |xxxxxxxxxxxxx |xxxxxxxxxxxxx |          138 |          138 |          138 |          138 |xxxxxxxxxxxxx |xxxxxxxxxxxxx |xxxxxxxxxxxxx |          202 |          202 |          202 |          202 |xxxxxxxxxxxxx |xxxxxxxxxxxxx |xxxxxxxxxxxxx |          330 |          330 |          330 |          330 |xxxxxxxxxxxxx |xxxxxxxxxxxxx |xxxxxxxxxxxxx |          586 |          586 |          586 |          586 |xxxxxxxxxxxxx |xxxxxxxxxxxxx |xxxxxxxxxxxxx |       525415 |       525415 |       525415 |       525415 |xxxxxxxxxxxxx |xxxxxxxxxxxxx |xxxxxxxxxxxxx |      1050729 |      1050729 |      1050729 |      1050729 |xxxxxxxxxxxxx |xxxxxxxxxxxxx |xxxxxxxxxxxxx |      2101357 |      2101357 |      2101357 |      2101357 |xxxxxxxxxxxxx |xxxxxxxxxxxxx |xxxxxxxxxxxxx |      4202613 |      4202613 |      4202613 |      4202613 |
bpred_2lev.retstack_pops             xxxxxxxxxxxxx |xxxxxxxxxxxxx |xxxxxxxxxxxxx |           80 |           80 |           80 |           80 |xxxxxxxxxxxxx |xxxxxxxxxxxxx |xxxxxxxxxxxxx |           88 |           88 |           88 |           88 |xxxxxxxxxxxxx |xxxxxxxxxxxxx |xxxxxxxxxxxxx |          104 |          104 |          104 |          104 |xxxxxxxxxxxxx |xxxxxxxxxxxxx |xxxxxxxxxxxxx |          136 |          136 |          136 |          136 |xxxxxxxxxxxxx |xxxxxxxxxxxxx |xxxxxxxxxxxxx |          200 |          200 |          200 |          200 |xxxxxxxxxxxxx |xxxxxxxxxxxxx |xxxxxxxxxxxxx |          328 |          328 |          328 |          328 |xxxxxxxxxxxxx |xxxxxxxxxxxxx |xxxxxxxxxxxxx |          584 |          584 |          584 |          584 |xxxxxxxxxxxxx |xxxxxxxxxxxxx |xxxxxxxxxxxxx |       525413 |       525413 |       525413 |       525413 |xxxxxxxxxxxxx |xxxxxxxxxxxxx |xxxxxxxxxxxxx |      1050727 |      1050727 |      1050727 |      1050727 |xxxxxxxxxxxxx |xxxxxxxxxxxxx |xxxxxxxxxxxxx |      2101355 |      2101355 |      2101355 |      2101355 |xxxxxxxxxxxxx |xxxxxxxxxxxxx |xxxxxxxxxxxxx |      4202611 |      4202611 |      4202611 |      4202611 |
bpred_2lev.used_ras.PP               xxxxxxxxxxxxx |xxxxxxxxxxxxx |xxxxxxxxxxxxx |           80 |           80 |           80 |           80 |xxxxxxxxxxxxx |xxxxxxxxxxxxx |xxxxxxxxxxxxx |           88 |           88 |           88 |           88 |xxxxxxxxxxxxx |xxxxxxxxxxxxx |xxxxxxxxxxxxx |          104 |          104 |          104 |          104 |xxxxxxxxxxxxx |xxxxxxxxxxxxx |xxxxxxxxxxxxx |          136 |          136 |          136 |          136 |xxxxxxxxxxxxx |xxxxxxxxxxxxx |xxxxxxxxxxxxx |          200 |          200 |          200 |          200 |xxxxxxxxxxxxx |xxxxxxxxxxxxx |xxxxxxxxxxxxx |          328 |          328 |          328 |          328 |xxxxxxxxxxxxx |xxxxxxxxxxxxx |xxxxxxxxxxxxx |          584 |          584 |          584 |          584 |xxxxxxxxxxxxx |xxxxxxxxxxxxx |xxxxxxxxxxxxx |       525413 |       525413 |       525413 |       525413 |xxxxxxxxxxxxx |xxxxxxxxxxxxx |xxxxxxxxxxxxx |      1050727 |      1050727 |      1050727 |      1050727 |xxxxxxxxxxxxx |xxxxxxxxxxxxx |xxxxxxxxxxxxx |      2101355 |      2101355 |      2101355 |      2101355 |xxxxxxxxxxxxx |xxxxxxxxxxxxx |xxxxxxxxxxxxx |      4202611 |      4202611 |      4202611 |      4202611 |
bpred_2lev.ras_hits.PP               xxxxxxxxxxxxx |xxxxxxxxxxxxx |xxxxxxxxxxxxx |           79 |           79 |           79 |           79 |xxxxxxxxxxxxx |xxxxxxxxxxxxx |xxxxxxxxxxxxx |           87 |           87 |           87 |           87 |xxxxxxxxxxxxx |xxxxxxxxxxxxx |xxxxxxxxxxxxx |          103 |          103 |          103 |          103 |xxxxxxxxxxxxx |xxxxxxxxxxxxx |xxxxxxxxxxxxx |          135 |          135 |          135 |          135 |xxxxxxxxxxxxx |xxxxxxxxxxxxx |xxxxxxxxxxxxx |          199 |          199 |          199 |          199 |xxxxxxxxxxxxx |xxxxxxxxxxxxx |xxxxxxxxxxxxx |          327 |          327 |          327 |          327 |xxxxxxxxxxxxx |xxxxxxxxxxxxx |xxxxxxxxxxxxx |          583 |          583 |          583 |          583 |xxxxxxxxxxxxx |xxxxxxxxxxxxx |xxxxxxxxxxxxx |       525413 |       525413 |       525413 |       525413 |xxxxxxxxxxxxx |xxxxxxxxxxxxx |xxxxxxxxxxxxx |      1050727 |      1050727 |      1050727 |      1050727 |xxxxxxxxxxxxx |xxxxxxxxxxxxx |xxxxxxxxxxxxx |      2101355 |      2101355 |      2101355 |      2101355 |xxxxxxxxxxxxx |xxxxxxxxxxxxx |xxxxxxxxxxxxx |      4202611 |      4202611 |      4202611 |      4202611 |
bpred_2lev.ras_rate.PP               xxxxxxxxxxxxx |xxxxxxxxxxxxx |xxxxxxxxxxxxx |       0.9875 |       0.9875 |       0.9875 |       0.9875 |xxxxxxxxxxxxx |xxxxxxxxxxxxx |xxxxxxxxxxxxx |       0.9886 |       0.9886 |       0.9886 |       0.9886 |xxxxxxxxxxxxx |xxxxxxxxxxxxx |xxxxxxxxxxxxx |       0.9904 |       0.9904 |       0.9904 |       0.9904 |xxxxxxxxxxxxx |xxxxxxxxxxxxx |xxxxxxxxxxxxx |       0.9926 |       0.9926 |       0.9926 |       0.9926 |xxxxxxxxxxxxx |xxxxxxxxxxxxx |xxxxxxxxxxxxx |       0.9950 |       0.9950 |       0.9950 |       0.9950 |xxxxxxxxxxxxx |xxxxxxxxxxxxx |xxxxxxxxxxxxx |       0.9970 |       0.9970 |       0.9970 |       0.9970 |xxxxxxxxxxxxx |xxxxxxxxxxxxx |xxxxxxxxxxxxx |       0.9983 |       0.9983 |       0.9983 |       0.9983 |xxxxxxxxxxxxx |xxxxxxxxxxxxx |xxxxxxxxxxxxx |       1.0000 |       1.0000 |       1.0000 |       1.0000 |xxxxxxxxxxxxx |xxxxxxxxxxxxx |xxxxxxxxxxxxx |       1.0000 |       1.0000 |       1.0000 |       1.0000 |xxxxxxxxxxxxx |xxxxxxxxxxxxx |xxxxxxxxxxxxx |       1.0000 |       1.0000 |       1.0000 |       1.0000 |xxxxxxxxxxxxx |xxxxxxxxxxxxx |xxxxxxxxxxxxx |       1.0000 |       1.0000 |       1.0000 |       1.0000 |

Command list: 
	sslittle-na-sstrix-gcc -Wall -O3 -funroll-loops -finline-functions  -DRANDOM_SIZE=4096 -DOFFSET=4 -DSORT=multi_mergesort sorts/multi_mergesort814147703.c simpleMain.c -o multi_mergesort1271352981
	sim-cache -cache:dl1 dl1:256:32:1:l -cache:dl2 dl2:131072:32:1:l -cache:il1 il1:256:32:1:l -cache:il2 dl2 multi_mergesort1271352981
	sim-cache -cache:dl1 dl1:256:32:1:l -cache:dl2 dl2:65536:32:1:l -cache:il1 il1:256:32:1:l -cache:il2 dl2 multi_mergesort1271352981
	sim-cache -cache:dl1 dl1:1:32:256:l -cache:dl2 dl2:1:32:131072:l -cache:il1 il1:1:32:256:l -cache:il2 dl2 multi_mergesort1271352981
	sim-cache -cache:dl1 dl1:1:32:256:l -cache:dl2 dl2:1:32:65536:l -cache:il1 il1:1:32:256:l -cache:il2 dl2 multi_mergesort1271352981
	sim-bpred -bpred bimod -bpred:bimod 512 multi_mergesort1271352981
	sim-bpred -bpred bimod -bpred:bimod 1024 multi_mergesort1271352981
	sim-bpred -bpred bimod -bpred:bimod 2048 multi_mergesort1271352981
	sim-bpred -bpred 2lev -bpred:2lev 1 512 10 1 multi_mergesort1271352981
	sim-bpred -bpred 2lev -bpred:2lev 1 1024 10 1 multi_mergesort1271352981
	sim-bpred -bpred 2lev -bpred:2lev 1 2048 10 1 multi_mergesort1271352981
	sim-bpred -bpred 2lev -bpred:2lev 1 4096 10 1 multi_mergesort1271352981
	sslittle-na-sstrix-gcc -Wall -O3 -funroll-loops -finline-functions  -DRANDOM_SIZE=8192 -DOFFSET=4 -DSORT=multi_mergesort sorts/multi_mergesort814147703.c simpleMain.c -o multi_mergesort1271352981
	sim-cache -cache:dl1 dl1:256:32:1:l -cache:dl2 dl2:131072:32:1:l -cache:il1 il1:256:32:1:l -cache:il2 dl2 multi_mergesort1271352981
	sim-cache -cache:dl1 dl1:256:32:1:l -cache:dl2 dl2:65536:32:1:l -cache:il1 il1:256:32:1:l -cache:il2 dl2 multi_mergesort1271352981
	sim-cache -cache:dl1 dl1:1:32:256:l -cache:dl2 dl2:1:32:131072:l -cache:il1 il1:1:32:256:l -cache:il2 dl2 multi_mergesort1271352981
	sim-cache -cache:dl1 dl1:1:32:256:l -cache:dl2 dl2:1:32:65536:l -cache:il1 il1:1:32:256:l -cache:il2 dl2 multi_mergesort1271352981
	sim-bpred -bpred bimod -bpred:bimod 512 multi_mergesort1271352981
	sim-bpred -bpred bimod -bpred:bimod 1024 multi_mergesort1271352981
	sim-bpred -bpred bimod -bpred:bimod 2048 multi_mergesort1271352981
	sim-bpred -bpred 2lev -bpred:2lev 1 512 10 1 multi_mergesort1271352981
	sim-bpred -bpred 2lev -bpred:2lev 1 1024 10 1 multi_mergesort1271352981
	sim-bpred -bpred 2lev -bpred:2lev 1 2048 10 1 multi_mergesort1271352981
	sim-bpred -bpred 2lev -bpred:2lev 1 4096 10 1 multi_mergesort1271352981
	sslittle-na-sstrix-gcc -Wall -O3 -funroll-loops -finline-functions  -DRANDOM_SIZE=16384 -DOFFSET=4 -DSORT=multi_mergesort sorts/multi_mergesort814147703.c simpleMain.c -o multi_mergesort1271352981
	sim-cache -cache:dl1 dl1:256:32:1:l -cache:dl2 dl2:131072:32:1:l -cache:il1 il1:256:32:1:l -cache:il2 dl2 multi_mergesort1271352981
	sim-cache -cache:dl1 dl1:256:32:1:l -cache:dl2 dl2:65536:32:1:l -cache:il1 il1:256:32:1:l -cache:il2 dl2 multi_mergesort1271352981
	sim-cache -cache:dl1 dl1:1:32:256:l -cache:dl2 dl2:1:32:131072:l -cache:il1 il1:1:32:256:l -cache:il2 dl2 multi_mergesort1271352981
	sim-cache -cache:dl1 dl1:1:32:256:l -cache:dl2 dl2:1:32:65536:l -cache:il1 il1:1:32:256:l -cache:il2 dl2 multi_mergesort1271352981
	sim-bpred -bpred bimod -bpred:bimod 512 multi_mergesort1271352981
	sim-bpred -bpred bimod -bpred:bimod 1024 multi_mergesort1271352981
	sim-bpred -bpred bimod -bpred:bimod 2048 multi_mergesort1271352981
	sim-bpred -bpred 2lev -bpred:2lev 1 512 10 1 multi_mergesort1271352981
	sim-bpred -bpred 2lev -bpred:2lev 1 1024 10 1 multi_mergesort1271352981
	sim-bpred -bpred 2lev -bpred:2lev 1 2048 10 1 multi_mergesort1271352981
	sim-bpred -bpred 2lev -bpred:2lev 1 4096 10 1 multi_mergesort1271352981
	sslittle-na-sstrix-gcc -Wall -O3 -funroll-loops -finline-functions  -DRANDOM_SIZE=32768 -DOFFSET=4 -DSORT=multi_mergesort sorts/multi_mergesort814147703.c simpleMain.c -o multi_mergesort1271352981
	sim-cache -cache:dl1 dl1:256:32:1:l -cache:dl2 dl2:131072:32:1:l -cache:il1 il1:256:32:1:l -cache:il2 dl2 multi_mergesort1271352981
	sim-cache -cache:dl1 dl1:256:32:1:l -cache:dl2 dl2:65536:32:1:l -cache:il1 il1:256:32:1:l -cache:il2 dl2 multi_mergesort1271352981
	sim-cache -cache:dl1 dl1:1:32:256:l -cache:dl2 dl2:1:32:131072:l -cache:il1 il1:1:32:256:l -cache:il2 dl2 multi_mergesort1271352981
	sim-cache -cache:dl1 dl1:1:32:256:l -cache:dl2 dl2:1:32:65536:l -cache:il1 il1:1:32:256:l -cache:il2 dl2 multi_mergesort1271352981
	sim-bpred -bpred bimod -bpred:bimod 512 multi_mergesort1271352981
	sim-bpred -bpred bimod -bpred:bimod 1024 multi_mergesort1271352981
	sim-bpred -bpred bimod -bpred:bimod 2048 multi_mergesort1271352981
	sim-bpred -bpred 2lev -bpred:2lev 1 512 10 1 multi_mergesort1271352981
	sim-bpred -bpred 2lev -bpred:2lev 1 1024 10 1 multi_mergesort1271352981
	sim-bpred -bpred 2lev -bpred:2lev 1 2048 10 1 multi_mergesort1271352981
	sim-bpred -bpred 2lev -bpred:2lev 1 4096 10 1 multi_mergesort1271352981
	sslittle-na-sstrix-gcc -Wall -O3 -funroll-loops -finline-functions  -DRANDOM_SIZE=65536 -DOFFSET=4 -DSORT=multi_mergesort sorts/multi_mergesort814147703.c simpleMain.c -o multi_mergesort1271352981
	sim-cache -cache:dl1 dl1:256:32:1:l -cache:dl2 dl2:131072:32:1:l -cache:il1 il1:256:32:1:l -cache:il2 dl2 multi_mergesort1271352981
	sim-cache -cache:dl1 dl1:256:32:1:l -cache:dl2 dl2:65536:32:1:l -cache:il1 il1:256:32:1:l -cache:il2 dl2 multi_mergesort1271352981
	sim-cache -cache:dl1 dl1:1:32:256:l -cache:dl2 dl2:1:32:131072:l -cache:il1 il1:1:32:256:l -cache:il2 dl2 multi_mergesort1271352981
	sim-cache -cache:dl1 dl1:1:32:256:l -cache:dl2 dl2:1:32:65536:l -cache:il1 il1:1:32:256:l -cache:il2 dl2 multi_mergesort1271352981
	sim-bpred -bpred bimod -bpred:bimod 512 multi_mergesort1271352981
	sim-bpred -bpred bimod -bpred:bimod 1024 multi_mergesort1271352981
	sim-bpred -bpred bimod -bpred:bimod 2048 multi_mergesort1271352981
	sim-bpred -bpred 2lev -bpred:2lev 1 512 10 1 multi_mergesort1271352981
	sim-bpred -bpred 2lev -bpred:2lev 1 1024 10 1 multi_mergesort1271352981
	sim-bpred -bpred 2lev -bpred:2lev 1 2048 10 1 multi_mergesort1271352981
	sim-bpred -bpred 2lev -bpred:2lev 1 4096 10 1 multi_mergesort1271352981
	sslittle-na-sstrix-gcc -Wall -O3 -funroll-loops -finline-functions  -DRANDOM_SIZE=131072 -DOFFSET=4 -DSORT=multi_mergesort sorts/multi_mergesort814147703.c simpleMain.c -o multi_mergesort1271352981
	sim-cache -cache:dl1 dl1:256:32:1:l -cache:dl2 dl2:131072:32:1:l -cache:il1 il1:256:32:1:l -cache:il2 dl2 multi_mergesort1271352981
	sim-cache -cache:dl1 dl1:256:32:1:l -cache:dl2 dl2:65536:32:1:l -cache:il1 il1:256:32:1:l -cache:il2 dl2 multi_mergesort1271352981
	sim-cache -cache:dl1 dl1:1:32:256:l -cache:dl2 dl2:1:32:131072:l -cache:il1 il1:1:32:256:l -cache:il2 dl2 multi_mergesort1271352981
	sim-cache -cache:dl1 dl1:1:32:256:l -cache:dl2 dl2:1:32:65536:l -cache:il1 il1:1:32:256:l -cache:il2 dl2 multi_mergesort1271352981
	sim-bpred -bpred bimod -bpred:bimod 512 multi_mergesort1271352981
	sim-bpred -bpred bimod -bpred:bimod 1024 multi_mergesort1271352981
	sim-bpred -bpred bimod -bpred:bimod 2048 multi_mergesort1271352981
	sim-bpred -bpred 2lev -bpred:2lev 1 512 10 1 multi_mergesort1271352981
	sim-bpred -bpred 2lev -bpred:2lev 1 1024 10 1 multi_mergesort1271352981
	sim-bpred -bpred 2lev -bpred:2lev 1 2048 10 1 multi_mergesort1271352981
	sim-bpred -bpred 2lev -bpred:2lev 1 4096 10 1 multi_mergesort1271352981
	sslittle-na-sstrix-gcc -Wall -O3 -funroll-loops -finline-functions  -DRANDOM_SIZE=262144 -DOFFSET=4 -DSORT=multi_mergesort sorts/multi_mergesort814147703.c simpleMain.c -o multi_mergesort1271352981
	sim-cache -cache:dl1 dl1:256:32:1:l -cache:dl2 dl2:131072:32:1:l -cache:il1 il1:256:32:1:l -cache:il2 dl2 multi_mergesort1271352981
	sim-cache -cache:dl1 dl1:256:32:1:l -cache:dl2 dl2:65536:32:1:l -cache:il1 il1:256:32:1:l -cache:il2 dl2 multi_mergesort1271352981
	sim-cache -cache:dl1 dl1:1:32:256:l -cache:dl2 dl2:1:32:131072:l -cache:il1 il1:1:32:256:l -cache:il2 dl2 multi_mergesort1271352981
	sim-cache -cache:dl1 dl1:1:32:256:l -cache:dl2 dl2:1:32:65536:l -cache:il1 il1:1:32:256:l -cache:il2 dl2 multi_mergesort1271352981
	sim-bpred -bpred bimod -bpred:bimod 512 multi_mergesort1271352981
	sim-bpred -bpred bimod -bpred:bimod 1024 multi_mergesort1271352981
	sim-bpred -bpred bimod -bpred:bimod 2048 multi_mergesort1271352981
	sim-bpred -bpred 2lev -bpred:2lev 1 512 10 1 multi_mergesort1271352981
	sim-bpred -bpred 2lev -bpred:2lev 1 1024 10 1 multi_mergesort1271352981
	sim-bpred -bpred 2lev -bpred:2lev 1 2048 10 1 multi_mergesort1271352981
	sim-bpred -bpred 2lev -bpred:2lev 1 4096 10 1 multi_mergesort1271352981
	sslittle-na-sstrix-gcc -Wall -O3 -funroll-loops -finline-functions  -DRANDOM_SIZE=524288 -DOFFSET=4 -DSORT=multi_mergesort sorts/multi_mergesort814147703.c simpleMain.c -o multi_mergesort1271352981
	sim-cache -cache:dl1 dl1:256:32:1:l -cache:dl2 dl2:131072:32:1:l -cache:il1 il1:256:32:1:l -cache:il2 dl2 multi_mergesort1271352981
	sim-cache -cache:dl1 dl1:256:32:1:l -cache:dl2 dl2:65536:32:1:l -cache:il1 il1:256:32:1:l -cache:il2 dl2 multi_mergesort1271352981
	sim-cache -cache:dl1 dl1:1:32:256:l -cache:dl2 dl2:1:32:131072:l -cache:il1 il1:1:32:256:l -cache:il2 dl2 multi_mergesort1271352981
	sim-cache -cache:dl1 dl1:1:32:256:l -cache:dl2 dl2:1:32:65536:l -cache:il1 il1:1:32:256:l -cache:il2 dl2 multi_mergesort1271352981
	sim-bpred -bpred bimod -bpred:bimod 512 multi_mergesort1271352981
	sim-bpred -bpred bimod -bpred:bimod 1024 multi_mergesort1271352981
	sim-bpred -bpred bimod -bpred:bimod 2048 multi_mergesort1271352981
	sim-bpred -bpred 2lev -bpred:2lev 1 512 10 1 multi_mergesort1271352981
	sim-bpred -bpred 2lev -bpred:2lev 1 1024 10 1 multi_mergesort1271352981
	sim-bpred -bpred 2lev -bpred:2lev 1 2048 10 1 multi_mergesort1271352981
	sim-bpred -bpred 2lev -bpred:2lev 1 4096 10 1 multi_mergesort1271352981
	sslittle-na-sstrix-gcc -Wall -O3 -funroll-loops -finline-functions  -DRANDOM_SIZE=1048576 -DOFFSET=4 -DSORT=multi_mergesort sorts/multi_mergesort814147703.c simpleMain.c -o multi_mergesort1271352981
	sim-cache -cache:dl1 dl1:256:32:1:l -cache:dl2 dl2:131072:32:1:l -cache:il1 il1:256:32:1:l -cache:il2 dl2 multi_mergesort1271352981
	sim-cache -cache:dl1 dl1:256:32:1:l -cache:dl2 dl2:65536:32:1:l -cache:il1 il1:256:32:1:l -cache:il2 dl2 multi_mergesort1271352981
	sim-cache -cache:dl1 dl1:1:32:256:l -cache:dl2 dl2:1:32:131072:l -cache:il1 il1:1:32:256:l -cache:il2 dl2 multi_mergesort1271352981
	sim-cache -cache:dl1 dl1:1:32:256:l -cache:dl2 dl2:1:32:65536:l -cache:il1 il1:1:32:256:l -cache:il2 dl2 multi_mergesort1271352981
	sim-bpred -bpred bimod -bpred:bimod 512 multi_mergesort1271352981
	sim-bpred -bpred bimod -bpred:bimod 1024 multi_mergesort1271352981
	sim-bpred -bpred bimod -bpred:bimod 2048 multi_mergesort1271352981
	sim-bpred -bpred 2lev -bpred:2lev 1 512 10 1 multi_mergesort1271352981
	sim-bpred -bpred 2lev -bpred:2lev 1 1024 10 1 multi_mergesort1271352981
	sim-bpred -bpred 2lev -bpred:2lev 1 2048 10 1 multi_mergesort1271352981
	sim-bpred -bpred 2lev -bpred:2lev 1 4096 10 1 multi_mergesort1271352981
	sslittle-na-sstrix-gcc -Wall -O3 -funroll-loops -finline-functions  -DRANDOM_SIZE=2097152 -DOFFSET=4 -DSORT=multi_mergesort sorts/multi_mergesort814147703.c simpleMain.c -o multi_mergesort1271352981
	sim-cache -cache:dl1 dl1:256:32:1:l -cache:dl2 dl2:131072:32:1:l -cache:il1 il1:256:32:1:l -cache:il2 dl2 multi_mergesort1271352981
	sim-cache -cache:dl1 dl1:256:32:1:l -cache:dl2 dl2:65536:32:1:l -cache:il1 il1:256:32:1:l -cache:il2 dl2 multi_mergesort1271352981
	sim-cache -cache:dl1 dl1:1:32:256:l -cache:dl2 dl2:1:32:131072:l -cache:il1 il1:1:32:256:l -cache:il2 dl2 multi_mergesort1271352981
	sim-cache -cache:dl1 dl1:1:32:256:l -cache:dl2 dl2:1:32:65536:l -cache:il1 il1:1:32:256:l -cache:il2 dl2 multi_mergesort1271352981
	sim-bpred -bpred bimod -bpred:bimod 512 multi_mergesort1271352981
	sim-bpred -bpred bimod -bpred:bimod 1024 multi_mergesort1271352981
	sim-bpred -bpred bimod -bpred:bimod 2048 multi_mergesort1271352981
	sim-bpred -bpred 2lev -bpred:2lev 1 512 10 1 multi_mergesort1271352981
	sim-bpred -bpred 2lev -bpred:2lev 1 1024 10 1 multi_mergesort1271352981
	sim-bpred -bpred 2lev -bpred:2lev 1 2048 10 1 multi_mergesort1271352981
	sim-bpred -bpred 2lev -bpred:2lev 1 4096 10 1 multi_mergesort1271352981
	sslittle-na-sstrix-gcc -Wall -O3 -funroll-loops -finline-functions  -DRANDOM_SIZE=4194304 -DOFFSET=4 -DSORT=multi_mergesort sorts/multi_mergesort814147703.c simpleMain.c -o multi_mergesort1271352981
	sim-cache -cache:dl1 dl1:256:32:1:l -cache:dl2 dl2:131072:32:1:l -cache:il1 il1:256:32:1:l -cache:il2 dl2 multi_mergesort1271352981
	sim-cache -cache:dl1 dl1:256:32:1:l -cache:dl2 dl2:65536:32:1:l -cache:il1 il1:256:32:1:l -cache:il2 dl2 multi_mergesort1271352981
	sim-cache -cache:dl1 dl1:1:32:256:l -cache:dl2 dl2:1:32:131072:l -cache:il1 il1:1:32:256:l -cache:il2 dl2 multi_mergesort1271352981
	sim-cache -cache:dl1 dl1:1:32:256:l -cache:dl2 dl2:1:32:65536:l -cache:il1 il1:1:32:256:l -cache:il2 dl2 multi_mergesort1271352981
	sim-bpred -bpred bimod -bpred:bimod 512 multi_mergesort1271352981
	sim-bpred -bpred bimod -bpred:bimod 1024 multi_mergesort1271352981
	sim-bpred -bpred bimod -bpred:bimod 2048 multi_mergesort1271352981
	sim-bpred -bpred 2lev -bpred:2lev 1 512 10 1 multi_mergesort1271352981
	sim-bpred -bpred 2lev -bpred:2lev 1 1024 10 1 multi_mergesort1271352981
	sim-bpred -bpred 2lev -bpred:2lev 1 2048 10 1 multi_mergesort1271352981
	sim-bpred -bpred 2lev -bpred:2lev 1 4096 10 1 multi_mergesort1271352981
