Fri Aug  5 08:07:17 2005
Run as: "./do_simple -c random.org9 -o 9 multi_quicksort_seq"
-------------------------------------------------------------------------------------------------
sim-cache                                     4096 |         4096 |         4096 |         4096 |         8192 |         8192 |         8192 |         8192 |        16384 |        16384 |        16384 |        16384 |        32768 |        32768 |        32768 |        32768 |        65536 |        65536 |        65536 |        65536 |       131072 |       131072 |       131072 |       131072 |       262144 |       262144 |       262144 |       262144 |       524288 |       524288 |       524288 |       524288 |      1048576 |      1048576 |      1048576 |      1048576 |      2097152 |      2097152 |      2097152 |      2097152 |      4194304 |      4194304 |      4194304 |      4194304 |
-cache:dl1 dl1:256:32:1:l -cache:dl2 dl2:131072:32:1:l -cache:il1 il1:256:32:1:l -cache:il2 dl2
-cache:dl1 dl1:256:32:1:l -cache:dl2 dl2:65536:32:1:l -cache:il1 il1:256:32:1:l -cache:il2 dl2
-cache:dl1 dl1:1:32:256:l -cache:dl2 dl2:1:32:131072:l -cache:il1 il1:1:32:256:l -cache:il2 dl2
-cache:dl1 dl1:1:32:256:l -cache:dl2 dl2:1:32:65536:l -cache:il1 il1:1:32:256:l -cache:il2 dl2
-------------------------------------------------------------------------------------------------
sim_num_insn                                467113 |       467113 |       467113 |       467113 |       985446 |       985446 |       985446 |       985446 |      2108007 |      2108007 |      2108007 |      2108007 |      4574019 |      4574019 |      4574019 |      4574019 |      9767567 |      9767567 |      9767567 |      9767567 |     20707677 |     20707677 |     20707677 |     20707677 |     43650997 |     43650997 |     43650997 |     43650997 |     95784115 |     95784115 |     95784115 |     95784115 |    196105863 |    196105863 |    196105863 |    196105863 |    588858893 |    588858893 |    588858893 |    588858893 |   1330331420 |   1330331420 |   1330331420 |   1330331420 |
sim_num_refs                                123466 |       123466 |       123466 |       123466 |       258238 |       258238 |       258238 |       258238 |       545293 |       545293 |       545293 |       545293 |      1164627 |      1164627 |      1164627 |      1164627 |      2470124 |      2470124 |      2470124 |      2470124 |      5214073 |      5214073 |      5214073 |      5214073 |     10959431 |     10959431 |     10959431 |     10959431 |     23562290 |     23562290 |     23562290 |     23562290 |     48582160 |     48582160 |     48582160 |     48582160 |    136080481 |    136080481 |    136080481 |    136080481 |    294003958 |    294003958 |    294003958 |    294003958 |
sim_elapsed_time                                 1 |            1 |            7 |            4 |            1 |            1 |           10 |            5 |            1 |            1 |           15 |            7 |            1 |            1 |           27 |           13 |            2 |            3 |           48 |           25 |            6 |            6 |           89 |           44 |           11 |           12 |          164 |           77 |           25 |           26 |          283 |          111 |           52 |           52 |          393 |          139 |          157 |          156 |          503 |          249 |          349 |          348 |          707 |          455 |
sim_inst_rate                          467113.0000 |  467113.0000 |   66730.4286 |  116778.2500 |  985446.0000 |  985446.0000 |   98544.6000 |  197089.2000 | 2108007.0000 | 2108007.0000 |  140533.8000 |  301143.8571 | 4574019.0000 | 4574019.0000 |  169408.1111 |  351847.6154 | 4883783.5000 | 3255855.6667 |  203490.9792 |  390702.6800 | 3451279.5000 | 3451279.5000 |  232670.5281 |  470629.0227 | 3968272.4545 | 3637583.0833 |  266164.6159 |  566896.0649 | 3831364.6000 | 3684004.4231 |  338459.7703 |  862919.9550 | 3771266.5962 | 3771266.5962 |  498997.1069 | 1410833.5468 | 3750693.5860 | 3774736.4936 | 1170693.6243 | 2364895.1526 | 3811837.8797 | 3822791.4368 | 1881656.8883 | 2923805.3187 |
il1.accesses                                467113 |       467113 |       467113 |       467113 |       985446 |       985446 |       985446 |       985446 |      2108007 |      2108007 |      2108007 |      2108007 |      4574019 |      4574019 |      4574019 |      4574019 |      9767567 |      9767567 |      9767567 |      9767567 |     20707677 |     20707677 |     20707677 |     20707677 |     43650997 |     43650997 |     43650997 |     43650997 |     95784115 |     95784115 |     95784115 |     95784115 |    196105863 |    196105863 |    196105863 |    196105863 |    588858893 |    588858893 |    588858893 |    588858893 |   1330331420 |   1330331420 |   1330331420 |   1330331420 |
il1.hits                                    466648 |       466648 |       466679 |       466679 |       984983 |       984983 |       985014 |       985014 |      2107530 |      2107530 |      2107569 |      2107569 |      4573555 |      4573555 |      4573584 |      4573584 |      9767097 |      9767097 |      9767126 |      9767126 |     20707214 |     20707214 |     20707243 |     20707243 |     43650536 |     43650536 |     43650565 |     43650565 |     95783650 |     95783650 |     95783679 |     95783679 |    196105400 |    196105400 |    196105429 |    196105429 |    588858153 |    588858153 |    588858198 |    588858198 |   1330330676 |   1330330676 |   1330330716 |   1330330716 |
il1.misses                                     465 |          465 |          434 |          434 |          463 |          463 |          432 |          432 |          477 |          477 |          438 |          438 |          464 |          464 |          435 |          435 |          470 |          470 |          441 |          441 |          463 |          463 |          434 |          434 |          461 |          461 |          432 |          432 |          465 |          465 |          436 |          436 |          463 |          463 |          434 |          434 |          740 |          740 |          695 |          695 |          744 |          744 |          704 |          704 |
il1.replacements                               222 |          222 |          178 |          178 |          220 |          220 |          176 |          176 |          235 |          235 |          182 |          182 |          219 |          219 |          179 |          179 |          225 |          225 |          185 |          185 |          218 |          218 |          178 |          178 |          216 |          216 |          176 |          176 |          220 |          220 |          180 |          180 |          218 |          218 |          178 |          178 |          485 |          485 |          439 |          439 |          489 |          489 |          448 |          448 |
il1.writebacks                                   0 |            0 |            0 |            0 |            0 |            0 |            0 |            0 |            0 |            0 |            0 |            0 |            0 |            0 |            0 |            0 |            0 |            0 |            0 |            0 |            0 |            0 |            0 |            0 |            0 |            0 |            0 |            0 |            0 |            0 |            0 |            0 |            0 |            0 |            0 |            0 |            0 |            0 |            0 |            0 |            0 |            0 |            0 |            0 |
il1.invalidations                                0 |            0 |            0 |            0 |            0 |            0 |            0 |            0 |            0 |            0 |            0 |            0 |            0 |            0 |            0 |            0 |            0 |            0 |            0 |            0 |            0 |            0 |            0 |            0 |            0 |            0 |            0 |            0 |            0 |            0 |            0 |            0 |            0 |            0 |            0 |            0 |            0 |            0 |            0 |            0 |            0 |            0 |            0 |            0 |
il1.miss_rate                               0.0010 |       0.0010 |       0.0009 |       0.0009 |       0.0005 |       0.0005 |       0.0004 |       0.0004 |       0.0002 |       0.0002 |       0.0002 |       0.0002 |       0.0001 |       0.0001 |       0.0001 |       0.0001 |       0.0000 |       0.0000 |       0.0000 |       0.0000 |       0.0000 |       0.0000 |       0.0000 |       0.0000 |       0.0000 |       0.0000 |       0.0000 |       0.0000 |       0.0000 |       0.0000 |       0.0000 |       0.0000 |       0.0000 |       0.0000 |       0.0000 |       0.0000 |       0.0000 |       0.0000 |       0.0000 |       0.0000 |       0.0000 |       0.0000 |       0.0000 |       0.0000 |
il1.repl_rate                               0.0005 |       0.0005 |       0.0004 |       0.0004 |       0.0002 |       0.0002 |       0.0002 |       0.0002 |       0.0001 |       0.0001 |       0.0001 |       0.0001 |       0.0000 |       0.0000 |       0.0000 |       0.0000 |       0.0000 |       0.0000 |       0.0000 |       0.0000 |       0.0000 |       0.0000 |       0.0000 |       0.0000 |       0.0000 |       0.0000 |       0.0000 |       0.0000 |       0.0000 |       0.0000 |       0.0000 |       0.0000 |       0.0000 |       0.0000 |       0.0000 |       0.0000 |       0.0000 |       0.0000 |       0.0000 |       0.0000 |       0.0000 |       0.0000 |       0.0000 |       0.0000 |
il1.wb_rate                                 0.0000 |       0.0000 |       0.0000 |       0.0000 |       0.0000 |       0.0000 |       0.0000 |       0.0000 |       0.0000 |       0.0000 |       0.0000 |       0.0000 |       0.0000 |       0.0000 |       0.0000 |       0.0000 |       0.0000 |       0.0000 |       0.0000 |       0.0000 |       0.0000 |       0.0000 |       0.0000 |       0.0000 |       0.0000 |       0.0000 |       0.0000 |       0.0000 |       0.0000 |       0.0000 |       0.0000 |       0.0000 |       0.0000 |       0.0000 |       0.0000 |       0.0000 |       0.0000 |       0.0000 |       0.0000 |       0.0000 |       0.0000 |       0.0000 |       0.0000 |       0.0000 |
il1.inv_rate                                0.0000 |       0.0000 |       0.0000 |       0.0000 |       0.0000 |       0.0000 |       0.0000 |       0.0000 |       0.0000 |       0.0000 |       0.0000 |       0.0000 |       0.0000 |       0.0000 |       0.0000 |       0.0000 |       0.0000 |       0.0000 |       0.0000 |       0.0000 |       0.0000 |       0.0000 |       0.0000 |       0.0000 |       0.0000 |       0.0000 |       0.0000 |       0.0000 |       0.0000 |       0.0000 |       0.0000 |       0.0000 |       0.0000 |       0.0000 |       0.0000 |       0.0000 |       0.0000 |       0.0000 |       0.0000 |       0.0000 |       0.0000 |       0.0000 |       0.0000 |       0.0000 |
dl1.accesses                                139932 |       139932 |       139932 |       139932 |       291088 |       291088 |       291088 |       291088 |       610911 |       610911 |       610911 |       610911 |      1295781 |      1295781 |      1295781 |      1295781 |      2732350 |      2732350 |      2732350 |      2732350 |      5738443 |      5738443 |      5738443 |      5738443 |     12008089 |     12008089 |     12008089 |     12008089 |     25659524 |     25659524 |     25659524 |     25659524 |     52776546 |     52776546 |     52776546 |     52776546 |    144469172 |    144469172 |    144469172 |    144469172 |    310781257 |    310781257 |    310781257 |    310781257 |
dl1.hits                                    137692 |       137692 |       137702 |       137702 |       286285 |       286285 |       286327 |       286327 |       599979 |       599979 |       599842 |       599842 |      1267248 |      1267248 |      1267315 |      1267315 |      2666222 |      2666222 |      2666654 |      2666654 |      5585371 |      5585371 |      5586827 |      5586827 |     11670644 |     11670644 |     11673126 |     11673126 |     24822868 |     24822868 |     24830156 |     24830156 |     51063877 |     51063877 |     51080848 |     51080848 |    135551721 |    135551721 |    140809929 |    140809929 |    298620553 |    298620553 |    303326499 |    303326499 |
dl1.misses                                    2240 |         2240 |         2230 |         2230 |         4803 |         4803 |         4761 |         4761 |        10932 |        10932 |        11069 |        11069 |        28533 |        28533 |        28466 |        28466 |        66128 |        66128 |        65696 |        65696 |       153072 |       153072 |       151616 |       151616 |       337445 |       337445 |       334963 |       334963 |       836656 |       836656 |       829368 |       829368 |      1712669 |      1712669 |      1695698 |      1695698 |      8917451 |      8917451 |      3659243 |      3659243 |     12160704 |     12160704 |      7454758 |      7454758 |
dl1.replacements                              1984 |         1984 |         1974 |         1974 |         4547 |         4547 |         4505 |         4505 |        10676 |        10676 |        10813 |        10813 |        28277 |        28277 |        28210 |        28210 |        65872 |        65872 |        65440 |        65440 |       152816 |       152816 |       151360 |       151360 |       337189 |       337189 |       334707 |       334707 |       836400 |       836400 |       829112 |       829112 |      1712413 |      1712413 |      1695442 |      1695442 |      8917195 |      8917195 |      3658987 |      3658987 |     12160448 |     12160448 |      7454502 |      7454502 |
dl1.writebacks                                1911 |         1911 |         1920 |         1920 |         4411 |         4411 |         4415 |         4415 |        10443 |        10443 |        10644 |        10644 |        26391 |        26391 |        26600 |        26600 |        60286 |        60286 |        60572 |        60572 |       142697 |       142697 |       142799 |       142799 |       315909 |       315909 |       316736 |       316736 |       723294 |       723294 |       723562 |       723562 |      1560884 |      1560884 |      1561083 |      1561083 |      5484122 |      5484122 |      2971750 |      2971750 |     10076493 |     10076493 |      6008069 |      6008069 |
dl1.invalidations                                0 |            0 |            0 |            0 |            0 |            0 |            0 |            0 |            0 |            0 |            0 |            0 |            0 |            0 |            0 |            0 |            0 |            0 |            0 |            0 |            0 |            0 |            0 |            0 |            0 |            0 |            0 |            0 |            0 |            0 |            0 |            0 |            0 |            0 |            0 |            0 |            0 |            0 |            0 |            0 |            0 |            0 |            0 |            0 |
dl1.miss_rate                               0.0160 |       0.0160 |       0.0159 |       0.0159 |       0.0165 |       0.0165 |       0.0164 |       0.0164 |       0.0179 |       0.0179 |       0.0181 |       0.0181 |       0.0220 |       0.0220 |       0.0220 |       0.0220 |       0.0242 |       0.0242 |       0.0240 |       0.0240 |       0.0267 |       0.0267 |       0.0264 |       0.0264 |       0.0281 |       0.0281 |       0.0279 |       0.0279 |       0.0326 |       0.0326 |       0.0323 |       0.0323 |       0.0325 |       0.0325 |       0.0321 |       0.0321 |       0.0617 |       0.0617 |       0.0253 |       0.0253 |       0.0391 |       0.0391 |       0.0240 |       0.0240 |
dl1.repl_rate                               0.0142 |       0.0142 |       0.0141 |       0.0141 |       0.0156 |       0.0156 |       0.0155 |       0.0155 |       0.0175 |       0.0175 |       0.0177 |       0.0177 |       0.0218 |       0.0218 |       0.0218 |       0.0218 |       0.0241 |       0.0241 |       0.0240 |       0.0240 |       0.0266 |       0.0266 |       0.0264 |       0.0264 |       0.0281 |       0.0281 |       0.0279 |       0.0279 |       0.0326 |       0.0326 |       0.0323 |       0.0323 |       0.0324 |       0.0324 |       0.0321 |       0.0321 |       0.0617 |       0.0617 |       0.0253 |       0.0253 |       0.0391 |       0.0391 |       0.0240 |       0.0240 |
dl1.wb_rate                                 0.0137 |       0.0137 |       0.0137 |       0.0137 |       0.0152 |       0.0152 |       0.0152 |       0.0152 |       0.0171 |       0.0171 |       0.0174 |       0.0174 |       0.0204 |       0.0204 |       0.0205 |       0.0205 |       0.0221 |       0.0221 |       0.0222 |       0.0222 |       0.0249 |       0.0249 |       0.0249 |       0.0249 |       0.0263 |       0.0263 |       0.0264 |       0.0264 |       0.0282 |       0.0282 |       0.0282 |       0.0282 |       0.0296 |       0.0296 |       0.0296 |       0.0296 |       0.0380 |       0.0380 |       0.0206 |       0.0206 |       0.0324 |       0.0324 |       0.0193 |       0.0193 |
dl1.inv_rate                                0.0000 |       0.0000 |       0.0000 |       0.0000 |       0.0000 |       0.0000 |       0.0000 |       0.0000 |       0.0000 |       0.0000 |       0.0000 |       0.0000 |       0.0000 |       0.0000 |       0.0000 |       0.0000 |       0.0000 |       0.0000 |       0.0000 |       0.0000 |       0.0000 |       0.0000 |       0.0000 |       0.0000 |       0.0000 |       0.0000 |       0.0000 |       0.0000 |       0.0000 |       0.0000 |       0.0000 |       0.0000 |       0.0000 |       0.0000 |       0.0000 |       0.0000 |       0.0000 |       0.0000 |       0.0000 |       0.0000 |       0.0000 |       0.0000 |       0.0000 |       0.0000 |
dl2.accesses                                  4616 |         4616 |         4584 |         4584 |         9677 |         9677 |         9608 |         9608 |        21852 |        21852 |        22151 |        22151 |        55388 |        55388 |        55501 |        55501 |       126884 |       126884 |       126709 |       126709 |       296232 |       296232 |       294849 |       294849 |       653815 |       653815 |       652131 |       652131 |      1560415 |      1560415 |      1553366 |      1553366 |      3274016 |      3274016 |      3257215 |      3257215 |     14402313 |     14402313 |      6631688 |      6631688 |     22237941 |     22237941 |     13463531 |     13463531 |
dl2.hits                                      3193 |         3193 |         3197 |         3197 |         7744 |         7744 |         7711 |         7711 |        18901 |        18901 |        19242 |        19242 |        50395 |        50395 |        50545 |        50545 |       117788 |       117788 |       117650 |       117650 |       278950 |       278950 |       277605 |       277605 |       620152 |       620152 |       618505 |       618505 |      1493979 |      1493325 |      1486968 |      1462652 |      3141441 |      2916792 |      3056372 |      2884145 |     13055958 |     13019968 |      5328856 |      5260671 |     19544327 |     19466924 |     10826430 |     10702091 |
dl2.misses                                    1423 |         1423 |         1387 |         1387 |         1933 |         1933 |         1897 |         1897 |         2951 |         2951 |         2909 |         2909 |         4993 |         4993 |         4956 |         4956 |         9096 |         9096 |         9059 |         9059 |        17282 |        17282 |        17244 |        17244 |        33663 |        33663 |        33626 |        33626 |        66436 |        67090 |        66398 |        90714 |       132575 |       357224 |       200843 |       373070 |      1346355 |      1382345 |      1302832 |      1371017 |      2693614 |      2771017 |      2637101 |      2761440 |
dl2.replacements                               282 |          282 |            0 |            0 |          287 |          287 |            0 |            0 |          288 |          288 |            0 |            0 |          284 |          284 |            0 |            0 |          290 |          290 |            0 |            0 |          284 |          284 |            0 |            0 |          288 |          288 |            0 |            0 |          286 |         1554 |            0 |        25178 |         1503 |       291688 |        69771 |       307534 |      1215283 |      1316809 |      1171760 |      1305481 |      2562542 |      2705481 |      2506029 |      2695904 |
dl2.writebacks                                 154 |          154 |            0 |            0 |          152 |          152 |            0 |            0 |          154 |          154 |            0 |            0 |          152 |          152 |            0 |            0 |          152 |          152 |            0 |            0 |          152 |          152 |            0 |            0 |          151 |          151 |            0 |            0 |          152 |         1270 |            0 |        24934 |         1241 |       287130 |        69542 |       302814 |       735557 |       798136 |       721879 |       805855 |      1557820 |      1672672 |      1516929 |      1673826 |
dl2.invalidations                                0 |            0 |            0 |            0 |            0 |            0 |            0 |            0 |            0 |            0 |            0 |            0 |            0 |            0 |            0 |            0 |            0 |            0 |            0 |            0 |            0 |            0 |            0 |            0 |            0 |            0 |            0 |            0 |            0 |            0 |            0 |            0 |            0 |            0 |            0 |            0 |            0 |            0 |            0 |            0 |            0 |            0 |            0 |            0 |
dl2.miss_rate                               0.3083 |       0.3083 |       0.3026 |       0.3026 |       0.1998 |       0.1998 |       0.1974 |       0.1974 |       0.1350 |       0.1350 |       0.1313 |       0.1313 |       0.0901 |       0.0901 |       0.0893 |       0.0893 |       0.0717 |       0.0717 |       0.0715 |       0.0715 |       0.0583 |       0.0583 |       0.0585 |       0.0585 |       0.0515 |       0.0515 |       0.0516 |       0.0516 |       0.0426 |       0.0430 |       0.0427 |       0.0584 |       0.0405 |       0.1091 |       0.0617 |       0.1145 |       0.0935 |       0.0960 |       0.1965 |       0.2067 |       0.1211 |       0.1246 |       0.1959 |       0.2051 |
dl2.repl_rate                               0.0611 |       0.0611 |       0.0000 |       0.0000 |       0.0297 |       0.0297 |       0.0000 |       0.0000 |       0.0132 |       0.0132 |       0.0000 |       0.0000 |       0.0051 |       0.0051 |       0.0000 |       0.0000 |       0.0023 |       0.0023 |       0.0000 |       0.0000 |       0.0010 |       0.0010 |       0.0000 |       0.0000 |       0.0004 |       0.0004 |       0.0000 |       0.0000 |       0.0002 |       0.0010 |       0.0000 |       0.0162 |       0.0005 |       0.0891 |       0.0214 |       0.0944 |       0.0844 |       0.0914 |       0.1767 |       0.1969 |       0.1152 |       0.1217 |       0.1861 |       0.2002 |
dl2.wb_rate                                 0.0334 |       0.0334 |       0.0000 |       0.0000 |       0.0157 |       0.0157 |       0.0000 |       0.0000 |       0.0070 |       0.0070 |       0.0000 |       0.0000 |       0.0027 |       0.0027 |       0.0000 |       0.0000 |       0.0012 |       0.0012 |       0.0000 |       0.0000 |       0.0005 |       0.0005 |       0.0000 |       0.0000 |       0.0002 |       0.0002 |       0.0000 |       0.0000 |       0.0001 |       0.0008 |       0.0000 |       0.0161 |       0.0004 |       0.0877 |       0.0214 |       0.0930 |       0.0511 |       0.0554 |       0.1089 |       0.1215 |       0.0701 |       0.0752 |       0.1127 |       0.1243 |
dl2.inv_rate                                0.0000 |       0.0000 |       0.0000 |       0.0000 |       0.0000 |       0.0000 |       0.0000 |       0.0000 |       0.0000 |       0.0000 |       0.0000 |       0.0000 |       0.0000 |       0.0000 |       0.0000 |       0.0000 |       0.0000 |       0.0000 |       0.0000 |       0.0000 |       0.0000 |       0.0000 |       0.0000 |       0.0000 |       0.0000 |       0.0000 |       0.0000 |       0.0000 |       0.0000 |       0.0000 |       0.0000 |       0.0000 |       0.0000 |       0.0000 |       0.0000 |       0.0000 |       0.0000 |       0.0000 |       0.0000 |       0.0000 |       0.0000 |       0.0000 |       0.0000 |       0.0000 |
itlb.accesses                               467113 |       467113 |       467113 |       467113 |       985446 |       985446 |       985446 |       985446 |      2108007 |      2108007 |      2108007 |      2108007 |      4574019 |      4574019 |      4574019 |      4574019 |      9767567 |      9767567 |      9767567 |      9767567 |     20707677 |     20707677 |     20707677 |     20707677 |     43650997 |     43650997 |     43650997 |     43650997 |     95784115 |     95784115 |     95784115 |     95784115 |    196105863 |    196105863 |    196105863 |    196105863 |    588858893 |    588858893 |    588858893 |    588858893 |   1330331420 |   1330331420 |   1330331420 |   1330331420 |
itlb.hits                                   467102 |       467102 |       467102 |       467102 |       985435 |       985435 |       985435 |       985435 |      2107996 |      2107996 |      2107996 |      2107996 |      4574008 |      4574008 |      4574008 |      4574008 |      9767556 |      9767556 |      9767556 |      9767556 |     20707666 |     20707666 |     20707666 |     20707666 |     43650986 |     43650986 |     43650986 |     43650986 |     95784104 |     95784104 |     95784104 |     95784104 |    196105852 |    196105852 |    196105852 |    196105852 |    588858882 |    588858882 |    588858882 |    588858882 |   1330331409 |   1330331409 |   1330331409 |   1330331409 |
itlb.misses                                     11 |           11 |           11 |           11 |           11 |           11 |           11 |           11 |           11 |           11 |           11 |           11 |           11 |           11 |           11 |           11 |           11 |           11 |           11 |           11 |           11 |           11 |           11 |           11 |           11 |           11 |           11 |           11 |           11 |           11 |           11 |           11 |           11 |           11 |           11 |           11 |           11 |           11 |           11 |           11 |           11 |           11 |           11 |           11 |
itlb.replacements                                0 |            0 |            0 |            0 |            0 |            0 |            0 |            0 |            0 |            0 |            0 |            0 |            0 |            0 |            0 |            0 |            0 |            0 |            0 |            0 |            0 |            0 |            0 |            0 |            0 |            0 |            0 |            0 |            0 |            0 |            0 |            0 |            0 |            0 |            0 |            0 |            0 |            0 |            0 |            0 |            0 |            0 |            0 |            0 |
itlb.writebacks                                  0 |            0 |            0 |            0 |            0 |            0 |            0 |            0 |            0 |            0 |            0 |            0 |            0 |            0 |            0 |            0 |            0 |            0 |            0 |            0 |            0 |            0 |            0 |            0 |            0 |            0 |            0 |            0 |            0 |            0 |            0 |            0 |            0 |            0 |            0 |            0 |            0 |            0 |            0 |            0 |            0 |            0 |            0 |            0 |
itlb.invalidations                               0 |            0 |            0 |            0 |            0 |            0 |            0 |            0 |            0 |            0 |            0 |            0 |            0 |            0 |            0 |            0 |            0 |            0 |            0 |            0 |            0 |            0 |            0 |            0 |            0 |            0 |            0 |            0 |            0 |            0 |            0 |            0 |            0 |            0 |            0 |            0 |            0 |            0 |            0 |            0 |            0 |            0 |            0 |            0 |
itlb.miss_rate                              0.0000 |       0.0000 |       0.0000 |       0.0000 |       0.0000 |       0.0000 |       0.0000 |       0.0000 |       0.0000 |       0.0000 |       0.0000 |       0.0000 |       0.0000 |       0.0000 |       0.0000 |       0.0000 |       0.0000 |       0.0000 |       0.0000 |       0.0000 |       0.0000 |       0.0000 |       0.0000 |       0.0000 |       0.0000 |       0.0000 |       0.0000 |       0.0000 |       0.0000 |       0.0000 |       0.0000 |       0.0000 |       0.0000 |       0.0000 |       0.0000 |       0.0000 |       0.0000 |       0.0000 |       0.0000 |       0.0000 |       0.0000 |       0.0000 |       0.0000 |       0.0000 |
itlb.repl_rate                              0.0000 |       0.0000 |       0.0000 |       0.0000 |       0.0000 |       0.0000 |       0.0000 |       0.0000 |       0.0000 |       0.0000 |       0.0000 |       0.0000 |       0.0000 |       0.0000 |       0.0000 |       0.0000 |       0.0000 |       0.0000 |       0.0000 |       0.0000 |       0.0000 |       0.0000 |       0.0000 |       0.0000 |       0.0000 |       0.0000 |       0.0000 |       0.0000 |       0.0000 |       0.0000 |       0.0000 |       0.0000 |       0.0000 |       0.0000 |       0.0000 |       0.0000 |       0.0000 |       0.0000 |       0.0000 |       0.0000 |       0.0000 |       0.0000 |       0.0000 |       0.0000 |
itlb.wb_rate                                0.0000 |       0.0000 |       0.0000 |       0.0000 |       0.0000 |       0.0000 |       0.0000 |       0.0000 |       0.0000 |       0.0000 |       0.0000 |       0.0000 |       0.0000 |       0.0000 |       0.0000 |       0.0000 |       0.0000 |       0.0000 |       0.0000 |       0.0000 |       0.0000 |       0.0000 |       0.0000 |       0.0000 |       0.0000 |       0.0000 |       0.0000 |       0.0000 |       0.0000 |       0.0000 |       0.0000 |       0.0000 |       0.0000 |       0.0000 |       0.0000 |       0.0000 |       0.0000 |       0.0000 |       0.0000 |       0.0000 |       0.0000 |       0.0000 |       0.0000 |       0.0000 |
itlb.inv_rate                               0.0000 |       0.0000 |       0.0000 |       0.0000 |       0.0000 |       0.0000 |       0.0000 |       0.0000 |       0.0000 |       0.0000 |       0.0000 |       0.0000 |       0.0000 |       0.0000 |       0.0000 |       0.0000 |       0.0000 |       0.0000 |       0.0000 |       0.0000 |       0.0000 |       0.0000 |       0.0000 |       0.0000 |       0.0000 |       0.0000 |       0.0000 |       0.0000 |       0.0000 |       0.0000 |       0.0000 |       0.0000 |       0.0000 |       0.0000 |       0.0000 |       0.0000 |       0.0000 |       0.0000 |       0.0000 |       0.0000 |       0.0000 |       0.0000 |       0.0000 |       0.0000 |
dtlb.accesses                               139932 |       139932 |       139932 |       139932 |       291088 |       291088 |       291088 |       291088 |       610911 |       610911 |       610911 |       610911 |      1295781 |      1295781 |      1295781 |      1295781 |      2732350 |      2732350 |      2732350 |      2732350 |      5738443 |      5738443 |      5738443 |      5738443 |     12008089 |     12008089 |     12008089 |     12008089 |     25659524 |     25659524 |     25659524 |     25659524 |     52776546 |     52776546 |     52776546 |     52776546 |    144469172 |    144469172 |    144469172 |    144469172 |    310781257 |    310781257 |    310781257 |    310781257 |
dtlb.hits                                   139920 |       139920 |       139920 |       139920 |       291072 |       291072 |       291072 |       291072 |       610887 |       610887 |       610887 |       610887 |      1295741 |      1295741 |      1295741 |      1295741 |      2732278 |      2732278 |      2732278 |      2732278 |      5738280 |      5738280 |      5738280 |      5738280 |     12007323 |     12007323 |     12007323 |     12007323 |     25656703 |     25656703 |     25656703 |     25656703 |     52770851 |     52770851 |     52770851 |     52770851 |    144454999 |    144454999 |    144454999 |    144454999 |    310752531 |    310752531 |    310752531 |    310752531 |
dtlb.misses                                     12 |           12 |           12 |           12 |           16 |           16 |           16 |           16 |           24 |           24 |           24 |           24 |           40 |           40 |           40 |           40 |           72 |           72 |           72 |           72 |          163 |          163 |          163 |          163 |          766 |          766 |          766 |          766 |         2821 |         2821 |         2821 |         2821 |         5695 |         5695 |         5695 |         5695 |        14173 |        14173 |        14173 |        14173 |        28726 |        28726 |        28726 |        28726 |
dtlb.replacements                                0 |            0 |            0 |            0 |            0 |            0 |            0 |            0 |            0 |            0 |            0 |            0 |            0 |            0 |            0 |            0 |            0 |            0 |            0 |            0 |           35 |           35 |           35 |           35 |          638 |          638 |          638 |          638 |         2693 |         2693 |         2693 |         2693 |         5567 |         5567 |         5567 |         5567 |        14045 |        14045 |        14045 |        14045 |        28598 |        28598 |        28598 |        28598 |
dtlb.writebacks                                  0 |            0 |            0 |            0 |            0 |            0 |            0 |            0 |            0 |            0 |            0 |            0 |            0 |            0 |            0 |            0 |            0 |            0 |            0 |            0 |           33 |           33 |           33 |           33 |          636 |          636 |          636 |          636 |         2691 |         2691 |         2691 |         2691 |         5565 |         5565 |         5565 |         5565 |        11981 |        11981 |        11981 |        11981 |        24474 |        24474 |        24474 |        24474 |
dtlb.invalidations                               0 |            0 |            0 |            0 |            0 |            0 |            0 |            0 |            0 |            0 |            0 |            0 |            0 |            0 |            0 |            0 |            0 |            0 |            0 |            0 |            0 |            0 |            0 |            0 |            0 |            0 |            0 |            0 |            0 |            0 |            0 |            0 |            0 |            0 |            0 |            0 |            0 |            0 |            0 |            0 |            0 |            0 |            0 |            0 |
dtlb.miss_rate                              0.0001 |       0.0001 |       0.0001 |       0.0001 |       0.0001 |       0.0001 |       0.0001 |       0.0001 |       0.0000 |       0.0000 |       0.0000 |       0.0000 |       0.0000 |       0.0000 |       0.0000 |       0.0000 |       0.0000 |       0.0000 |       0.0000 |       0.0000 |       0.0000 |       0.0000 |       0.0000 |       0.0000 |       0.0001 |       0.0001 |       0.0001 |       0.0001 |       0.0001 |       0.0001 |       0.0001 |       0.0001 |       0.0001 |       0.0001 |       0.0001 |       0.0001 |       0.0001 |       0.0001 |       0.0001 |       0.0001 |       0.0001 |       0.0001 |       0.0001 |       0.0001 |
dtlb.repl_rate                              0.0000 |       0.0000 |       0.0000 |       0.0000 |       0.0000 |       0.0000 |       0.0000 |       0.0000 |       0.0000 |       0.0000 |       0.0000 |       0.0000 |       0.0000 |       0.0000 |       0.0000 |       0.0000 |       0.0000 |       0.0000 |       0.0000 |       0.0000 |       0.0000 |       0.0000 |       0.0000 |       0.0000 |       0.0001 |       0.0001 |       0.0001 |       0.0001 |       0.0001 |       0.0001 |       0.0001 |       0.0001 |       0.0001 |       0.0001 |       0.0001 |       0.0001 |       0.0001 |       0.0001 |       0.0001 |       0.0001 |       0.0001 |       0.0001 |       0.0001 |       0.0001 |
dtlb.wb_rate                                0.0000 |       0.0000 |       0.0000 |       0.0000 |       0.0000 |       0.0000 |       0.0000 |       0.0000 |       0.0000 |       0.0000 |       0.0000 |       0.0000 |       0.0000 |       0.0000 |       0.0000 |       0.0000 |       0.0000 |       0.0000 |       0.0000 |       0.0000 |       0.0000 |       0.0000 |       0.0000 |       0.0000 |       0.0001 |       0.0001 |       0.0001 |       0.0001 |       0.0001 |       0.0001 |       0.0001 |       0.0001 |       0.0001 |       0.0001 |       0.0001 |       0.0001 |       0.0001 |       0.0001 |       0.0001 |       0.0001 |       0.0001 |       0.0001 |       0.0001 |       0.0001 |
dtlb.inv_rate                               0.0000 |       0.0000 |       0.0000 |       0.0000 |       0.0000 |       0.0000 |       0.0000 |       0.0000 |       0.0000 |       0.0000 |       0.0000 |       0.0000 |       0.0000 |       0.0000 |       0.0000 |       0.0000 |       0.0000 |       0.0000 |       0.0000 |       0.0000 |       0.0000 |       0.0000 |       0.0000 |       0.0000 |       0.0000 |       0.0000 |       0.0000 |       0.0000 |       0.0000 |       0.0000 |       0.0000 |       0.0000 |       0.0000 |       0.0000 |       0.0000 |       0.0000 |       0.0000 |       0.0000 |       0.0000 |       0.0000 |       0.0000 |       0.0000 |       0.0000 |       0.0000 |
ld_text_base                            0x00400000 |   0x00400000 |   0x00400000 |   0x00400000 |   0x00400000 |   0x00400000 |   0x00400000 |   0x00400000 |   0x00400000 |   0x00400000 |   0x00400000 |   0x00400000 |   0x00400000 |   0x00400000 |   0x00400000 |   0x00400000 |   0x00400000 |   0x00400000 |   0x00400000 |   0x00400000 |   0x00400000 |   0x00400000 |   0x00400000 |   0x00400000 |   0x00400000 |   0x00400000 |   0x00400000 |   0x00400000 |   0x00400000 |   0x00400000 |   0x00400000 |   0x00400000 |   0x00400000 |   0x00400000 |   0x00400000 |   0x00400000 |   0x00400000 |   0x00400000 |   0x00400000 |   0x00400000 |   0x00400000 |   0x00400000 |   0x00400000 |   0x00400000 |
ld_text_size                                 78480 |        78480 |        78480 |        78480 |        78512 |        78512 |        78512 |        78512 |        78528 |        78528 |        78528 |        78528 |        78544 |        78544 |        78544 |        78544 |        78544 |        78544 |        78544 |        78544 |        78544 |        78544 |        78544 |        78544 |        78544 |        78544 |        78544 |        78544 |        78544 |        78544 |        78544 |        78544 |        78544 |        78544 |        78544 |        78544 |        78544 |        78544 |        78544 |        78544 |        78544 |        78544 |        78544 |        78544 |
ld_data_base                            0x10000000 |   0x10000000 |   0x10000000 |   0x10000000 |   0x10000000 |   0x10000000 |   0x10000000 |   0x10000000 |   0x10000000 |   0x10000000 |   0x10000000 |   0x10000000 |   0x10000000 |   0x10000000 |   0x10000000 |   0x10000000 |   0x10000000 |   0x10000000 |   0x10000000 |   0x10000000 |   0x10000000 |   0x10000000 |   0x10000000 |   0x10000000 |   0x10000000 |   0x10000000 |   0x10000000 |   0x10000000 |   0x10000000 |   0x10000000 |   0x10000000 |   0x10000000 |   0x10000000 |   0x10000000 |   0x10000000 |   0x10000000 |   0x10000000 |   0x10000000 |   0x10000000 |   0x10000000 |   0x10000000 |   0x10000000 |   0x10000000 |   0x10000000 |
ld_data_size                                  8192 |         8192 |         8192 |         8192 |         8192 |         8192 |         8192 |         8192 |         8192 |         8192 |         8192 |         8192 |         8192 |         8192 |         8192 |         8192 |         8192 |         8192 |         8192 |         8192 |         8192 |         8192 |         8192 |         8192 |         8192 |         8192 |         8192 |         8192 |         8192 |         8192 |         8192 |         8192 |         8192 |         8192 |         8192 |         8192 |         8192 |         8192 |         8192 |         8192 |         8192 |         8192 |         8192 |         8192 |
ld_stack_base                           0x7fffc000 |   0x7fffc000 |   0x7fffc000 |   0x7fffc000 |   0x7fffc000 |   0x7fffc000 |   0x7fffc000 |   0x7fffc000 |   0x7fffc000 |   0x7fffc000 |   0x7fffc000 |   0x7fffc000 |   0x7fffc000 |   0x7fffc000 |   0x7fffc000 |   0x7fffc000 |   0x7fffc000 |   0x7fffc000 |   0x7fffc000 |   0x7fffc000 |   0x7fffc000 |   0x7fffc000 |   0x7fffc000 |   0x7fffc000 |   0x7fffc000 |   0x7fffc000 |   0x7fffc000 |   0x7fffc000 |   0x7fffc000 |   0x7fffc000 |   0x7fffc000 |   0x7fffc000 |   0x7fffc000 |   0x7fffc000 |   0x7fffc000 |   0x7fffc000 |   0x7fffc000 |   0x7fffc000 |   0x7fffc000 |   0x7fffc000 |   0x7fffc000 |   0x7fffc000 |   0x7fffc000 |   0x7fffc000 |
ld_stack_size                                16384 |        16384 |        16384 |        16384 |        16384 |        16384 |        16384 |        16384 |        16384 |        16384 |        16384 |        16384 |        16384 |        16384 |        16384 |        16384 |        16384 |        16384 |        16384 |        16384 |        16384 |        16384 |        16384 |        16384 |        16384 |        16384 |        16384 |        16384 |        16384 |        16384 |        16384 |        16384 |        16384 |        16384 |        16384 |        16384 |        16384 |        16384 |        16384 |        16384 |        16384 |        16384 |        16384 |        16384 |
ld_prog_entry                           0x00400140 |   0x00400140 |   0x00400140 |   0x00400140 |   0x00400140 |   0x00400140 |   0x00400140 |   0x00400140 |   0x00400140 |   0x00400140 |   0x00400140 |   0x00400140 |   0x00400140 |   0x00400140 |   0x00400140 |   0x00400140 |   0x00400140 |   0x00400140 |   0x00400140 |   0x00400140 |   0x00400140 |   0x00400140 |   0x00400140 |   0x00400140 |   0x00400140 |   0x00400140 |   0x00400140 |   0x00400140 |   0x00400140 |   0x00400140 |   0x00400140 |   0x00400140 |   0x00400140 |   0x00400140 |   0x00400140 |   0x00400140 |   0x00400140 |   0x00400140 |   0x00400140 |   0x00400140 |   0x00400140 |   0x00400140 |   0x00400140 |   0x00400140 |
ld_environ_base                         0x7fff8000 |   0x7fff8000 |   0x7fff8000 |   0x7fff8000 |   0x7fff8000 |   0x7fff8000 |   0x7fff8000 |   0x7fff8000 |   0x7fff8000 |   0x7fff8000 |   0x7fff8000 |   0x7fff8000 |   0x7fff8000 |   0x7fff8000 |   0x7fff8000 |   0x7fff8000 |   0x7fff8000 |   0x7fff8000 |   0x7fff8000 |   0x7fff8000 |   0x7fff8000 |   0x7fff8000 |   0x7fff8000 |   0x7fff8000 |   0x7fff8000 |   0x7fff8000 |   0x7fff8000 |   0x7fff8000 |   0x7fff8000 |   0x7fff8000 |   0x7fff8000 |   0x7fff8000 |   0x7fff8000 |   0x7fff8000 |   0x7fff8000 |   0x7fff8000 |   0x7fff8000 |   0x7fff8000 |   0x7fff8000 |   0x7fff8000 |   0x7fff8000 |   0x7fff8000 |   0x7fff8000 |   0x7fff8000 |
ld_target_big_endian                             0 |            0 |            0 |            0 |            0 |            0 |            0 |            0 |            0 |            0 |            0 |            0 |            0 |            0 |            0 |            0 |            0 |            0 |            0 |            0 |            0 |            0 |            0 |            0 |            0 |            0 |            0 |            0 |            0 |            0 |            0 |            0 |            0 |            0 |            0 |            0 |            0 |            0 |            0 |            0 |            0 |            0 |            0 |            0 |
mem.page_count                                  32 |           32 |           32 |           32 |           36 |           36 |           36 |           36 |           44 |           44 |           44 |           44 |           60 |           60 |           60 |           60 |           92 |           92 |           92 |           92 |          156 |          156 |          156 |          156 |          284 |          284 |          284 |          284 |          540 |          540 |          540 |          540 |         1052 |         1052 |         1052 |         1052 |         4146 |         4146 |         4146 |         4146 |         8269 |         8269 |         8269 |         8269 |
mem.page_mem                                  128k |         128k |         128k |         128k |         144k |         144k |         144k |         144k |         176k |         176k |         176k |         176k |         240k |         240k |         240k |         240k |         368k |         368k |         368k |         368k |         624k |         624k |         624k |         624k |        1136k |        1136k |        1136k |        1136k |        2160k |        2160k |        2160k |        2160k |        4208k |        4208k |        4208k |        4208k |       16584k |       16584k |       16584k |       16584k |       33076k |       33076k |       33076k |       33076k |
mem.ptab_misses                                 32 |           32 |           32 |           32 |           36 |           36 |           36 |           36 |           44 |           44 |           44 |           44 |           60 |           60 |           60 |           60 |           92 |           92 |           92 |           92 |          156 |          156 |          156 |          156 |          284 |          284 |          284 |          284 |          540 |          540 |          540 |          540 |         1052 |         1052 |         1052 |         1052 |        22560 |        22560 |        22560 |        22560 |        26683 |        26683 |        26683 |        26683 |
mem.ptab_accesses                          2633848 |      2633848 |      2633848 |      2633848 |      5009684 |      5009684 |      5009684 |      5009684 |     10139670 |     10139670 |     10139670 |     10139670 |     21373554 |     21373554 |     21373554 |     21373554 |     45020884 |     45020884 |     45020884 |     45020884 |     94793510 |     94793510 |     94793510 |     94793510 |    199106082 |    199106082 |    199106082 |    199106082 |    434941424 |    434941424 |    434941424 |    434941424 |    890462460 |    890462460 |    890462460 |    890462460 |   2644859832 |   2644859832 |   2644859832 |   2644859832 |   5943374110 |   5943374110 |   5943374110 |   5943374110 |
mem.ptab_miss_rate                          0.0000 |       0.0000 |       0.0000 |       0.0000 |       0.0000 |       0.0000 |       0.0000 |       0.0000 |       0.0000 |       0.0000 |       0.0000 |       0.0000 |       0.0000 |       0.0000 |       0.0000 |       0.0000 |       0.0000 |       0.0000 |       0.0000 |       0.0000 |       0.0000 |       0.0000 |       0.0000 |       0.0000 |       0.0000 |       0.0000 |       0.0000 |       0.0000 |       0.0000 |       0.0000 |       0.0000 |       0.0000 |       0.0000 |       0.0000 |       0.0000 |       0.0000 |       0.0000 |       0.0000 |       0.0000 |       0.0000 |       0.0000 |       0.0000 |       0.0000 |       0.0000 |
-------------------------------------------------------------------------------------------------
sim-bpred                                     4096 |         4096 |         4096 |         4096 |         4096 |         4096 |         4096 |         8192 |         8192 |         8192 |         8192 |         8192 |         8192 |         8192 |        16384 |        16384 |        16384 |        16384 |        16384 |        16384 |        16384 |        32768 |        32768 |        32768 |        32768 |        32768 |        32768 |        32768 |        65536 |        65536 |        65536 |        65536 |        65536 |        65536 |        65536 |       131072 |       131072 |       131072 |       131072 |       131072 |       131072 |       131072 |       262144 |       262144 |       262144 |       262144 |       262144 |       262144 |       262144 |       524288 |       524288 |       524288 |       524288 |       524288 |       524288 |       524288 |      1048576 |      1048576 |      1048576 |      1048576 |      1048576 |      1048576 |      1048576 |      2097152 |      2097152 |      2097152 |      2097152 |      2097152 |      2097152 |      2097152 |      4194304 |      4194304 |      4194304 |      4194304 |      4194304 |      4194304 |      4194304 |
-bpred bimod -bpred:bimod 512
-bpred bimod -bpred:bimod 1024
-bpred bimod -bpred:bimod 2048
-bpred 2lev -bpred:2lev 1 512 10 1
-bpred 2lev -bpred:2lev 1 1024 10 1
-bpred 2lev -bpred:2lev 1 2048 10 1
-bpred 2lev -bpred:2lev 1 4096 10 1
-------------------------------------------------------------------------------------------------
sim_num_insn                                467113 |       467113 |       467113 |       467113 |       467113 |       467113 |       467113 |       985446 |       985446 |       985446 |       985446 |       985446 |       985446 |       985446 |      2108007 |      2108007 |      2108007 |      2108007 |      2108007 |      2108007 |      2108007 |      4574019 |      4574019 |      4574019 |      4574019 |      4574019 |      4574019 |      4574019 |      9767567 |      9767567 |      9767567 |      9767567 |      9767567 |      9767567 |      9767567 |     20707677 |     20707677 |     20707677 |     20707677 |     20707677 |     20707677 |     20707677 |     43650997 |     43650997 |     43650997 |     43650997 |     43650997 |     43650997 |     43650997 |     95784115 |     95784115 |     95784115 |     95784115 |     95784115 |     95784115 |     95784115 |    196105863 |    196105863 |    196105863 |    196105863 |    196105863 |    196105863 |    196105863 |    588858893 |    588858893 |    588858893 |    588858893 |    588858893 |    588858893 |    588858893 |   1330331420 |   1330331420 |   1330331420 |   1330331420 |   1330331420 |   1330331420 |   1330331420 |
sim_num_refs                                123466 |       123466 |       123466 |       123466 |       123466 |       123466 |       123466 |       258238 |       258238 |       258238 |       258238 |       258238 |       258238 |       258238 |       545293 |       545293 |       545293 |       545293 |       545293 |       545293 |       545293 |      1164627 |      1164627 |      1164627 |      1164627 |      1164627 |      1164627 |      1164627 |      2470124 |      2470124 |      2470124 |      2470124 |      2470124 |      2470124 |      2470124 |      5214073 |      5214073 |      5214073 |      5214073 |      5214073 |      5214073 |      5214073 |     10959431 |     10959431 |     10959431 |     10959431 |     10959431 |     10959431 |     10959431 |     23562290 |     23562290 |     23562290 |     23562290 |     23562290 |     23562290 |     23562290 |     48582160 |     48582160 |     48582160 |     48582160 |     48582160 |     48582160 |     48582160 |    136080481 |    136080481 |    136080481 |    136080481 |    136080481 |    136080481 |    136080481 |    294003958 |    294003958 |    294003958 |    294003958 |    294003958 |    294003958 |    294003958 |
sim_elapsed_time                                 1 |            1 |            1 |            1 |            1 |            1 |            1 |            1 |            1 |            1 |            1 |            1 |            1 |            1 |            1 |            1 |            1 |            1 |            1 |            1 |            1 |            1 |            1 |            1 |            1 |            1 |            1 |            1 |            1 |            1 |            1 |            1 |            1 |            1 |            1 |            3 |            2 |            3 |            3 |            2 |            3 |            2 |            5 |            5 |            6 |            5 |            5 |            6 |            5 |           11 |           12 |           11 |           12 |           12 |           11 |           12 |           23 |           24 |           23 |           24 |           24 |           24 |           24 |           74 |           74 |           74 |           76 |           76 |           76 |           76 |          168 |          168 |          168 |          173 |          174 |          173 |          174 |
sim_inst_rate                          467113.0000 |  467113.0000 |  467113.0000 |  467113.0000 |  467113.0000 |  467113.0000 |  467113.0000 |  985446.0000 |  985446.0000 |  985446.0000 |  985446.0000 |  985446.0000 |  985446.0000 |  985446.0000 | 2108007.0000 | 2108007.0000 | 2108007.0000 | 2108007.0000 | 2108007.0000 | 2108007.0000 | 2108007.0000 | 4574019.0000 | 4574019.0000 | 4574019.0000 | 4574019.0000 | 4574019.0000 | 4574019.0000 | 4574019.0000 | 9767567.0000 | 9767567.0000 | 9767567.0000 | 9767567.0000 | 9767567.0000 | 9767567.0000 | 9767567.0000 | 6902559.0000 |10353838.5000 | 6902559.0000 | 6902559.0000 |10353838.5000 | 6902559.0000 |10353838.5000 | 8730199.4000 | 8730199.4000 | 7275166.1667 | 8730199.4000 | 8730199.4000 | 7275166.1667 | 8730199.4000 | 8707646.8182 | 7982009.5833 | 8707646.8182 | 7982009.5833 | 7982009.5833 | 8707646.8182 | 7982009.5833 | 8526341.8696 | 8171077.6250 | 8526341.8696 | 8171077.6250 | 8171077.6250 | 8171077.6250 | 8171077.6250 | 7957552.6081 | 7957552.6081 | 7957552.6081 | 7748143.3289 | 7748143.3289 | 7748143.3289 | 7748143.3289 | 7918639.4048 | 7918639.4048 | 7918639.4048 | 7689776.9942 | 7645582.8736 | 7689776.9942 | 7645582.8736 |
sim_num_branches                             76470 |        76470 |        76470 |        76470 |        76470 |        76470 |        76470 |       163105 |       163105 |       163105 |       163105 |       163105 |       163105 |       163105 |       351292 |       351292 |       351292 |       351292 |       351292 |       351292 |       351292 |       765136 |       765136 |       765136 |       765136 |       765136 |       765136 |       765136 |      1643421 |      1643421 |      1643421 |      1643421 |      1643421 |      1643421 |      1643421 |      3502817 |      3502817 |      3502817 |      3502817 |      3502817 |      3502817 |      3502817 |      7409316 |      7409316 |      7409316 |      7409316 |      7409316 |      7409316 |      7409316 |     16268572 |     16268572 |     16268572 |     16268572 |     16268572 |     16268572 |     16268572 |     33422511 |     33422511 |     33422511 |     33422511 |     33422511 |     33422511 |     33422511 |    107886580 |    107886580 |    107886580 |    107886580 |    107886580 |    107886580 |    107886580 |    258396183 |    258396183 |    258396183 |    258396183 |    258396183 |    258396183 |    258396183 |
sim_IPB                                     6.1084 |       6.1084 |       6.1084 |       6.1084 |       6.1084 |       6.1084 |       6.1084 |       6.0418 |       6.0418 |       6.0418 |       6.0418 |       6.0418 |       6.0418 |       6.0418 |       6.0007 |       6.0007 |       6.0007 |       6.0007 |       6.0007 |       6.0007 |       6.0007 |       5.9780 |       5.9780 |       5.9780 |       5.9780 |       5.9780 |       5.9780 |       5.9780 |       5.9434 |       5.9434 |       5.9434 |       5.9434 |       5.9434 |       5.9434 |       5.9434 |       5.9117 |       5.9117 |       5.9117 |       5.9117 |       5.9117 |       5.9117 |       5.9117 |       5.8914 |       5.8914 |       5.8914 |       5.8914 |       5.8914 |       5.8914 |       5.8914 |       5.8877 |       5.8877 |       5.8877 |       5.8877 |       5.8877 |       5.8877 |       5.8877 |       5.8675 |       5.8675 |       5.8675 |       5.8675 |       5.8675 |       5.8675 |       5.8675 |       5.4581 |       5.4581 |       5.4581 |       5.4581 |       5.4581 |       5.4581 |       5.4581 |       5.1484 |       5.1484 |       5.1484 |       5.1484 |       5.1484 |       5.1484 |       5.1484 |
bpred_bimod.lookups                          76470 |        76470 |        76470 |xxxxxxxxxxxxx |xxxxxxxxxxxxx |xxxxxxxxxxxxx |xxxxxxxxxxxxx |       163105 |       163105 |       163105 |xxxxxxxxxxxxx |xxxxxxxxxxxxx |xxxxxxxxxxxxx |xxxxxxxxxxxxx |       351292 |       351292 |       351292 |xxxxxxxxxxxxx |xxxxxxxxxxxxx |xxxxxxxxxxxxx |xxxxxxxxxxxxx |       765136 |       765136 |       765136 |xxxxxxxxxxxxx |xxxxxxxxxxxxx |xxxxxxxxxxxxx |xxxxxxxxxxxxx |      1643421 |      1643421 |      1643421 |xxxxxxxxxxxxx |xxxxxxxxxxxxx |xxxxxxxxxxxxx |xxxxxxxxxxxxx |      3502817 |      3502817 |      3502817 |xxxxxxxxxxxxx |xxxxxxxxxxxxx |xxxxxxxxxxxxx |xxxxxxxxxxxxx |      7409316 |      7409316 |      7409316 |xxxxxxxxxxxxx |xxxxxxxxxxxxx |xxxxxxxxxxxxx |xxxxxxxxxxxxx |     16268572 |     16268572 |     16268572 |xxxxxxxxxxxxx |xxxxxxxxxxxxx |xxxxxxxxxxxxx |xxxxxxxxxxxxx |     33422511 |     33422511 |     33422511 |xxxxxxxxxxxxx |xxxxxxxxxxxxx |xxxxxxxxxxxxx |xxxxxxxxxxxxx |    107886580 |    107886580 |    107886580 |xxxxxxxxxxxxx |xxxxxxxxxxxxx |xxxxxxxxxxxxx |xxxxxxxxxxxxx |    258396183 |    258396183 |    258396183 |
bpred_bimod.updates                          76470 |        76470 |        76470 |xxxxxxxxxxxxx |xxxxxxxxxxxxx |xxxxxxxxxxxxx |xxxxxxxxxxxxx |       163105 |       163105 |       163105 |xxxxxxxxxxxxx |xxxxxxxxxxxxx |xxxxxxxxxxxxx |xxxxxxxxxxxxx |       351292 |       351292 |       351292 |xxxxxxxxxxxxx |xxxxxxxxxxxxx |xxxxxxxxxxxxx |xxxxxxxxxxxxx |       765136 |       765136 |       765136 |xxxxxxxxxxxxx |xxxxxxxxxxxxx |xxxxxxxxxxxxx |xxxxxxxxxxxxx |      1643421 |      1643421 |      1643421 |xxxxxxxxxxxxx |xxxxxxxxxxxxx |xxxxxxxxxxxxx |xxxxxxxxxxxxx |      3502817 |      3502817 |      3502817 |xxxxxxxxxxxxx |xxxxxxxxxxxxx |xxxxxxxxxxxxx |xxxxxxxxxxxxx |      7409316 |      7409316 |      7409316 |xxxxxxxxxxxxx |xxxxxxxxxxxxx |xxxxxxxxxxxxx |xxxxxxxxxxxxx |     16268572 |     16268572 |     16268572 |xxxxxxxxxxxxx |xxxxxxxxxxxxx |xxxxxxxxxxxxx |xxxxxxxxxxxxx |     33422511 |     33422511 |     33422511 |xxxxxxxxxxxxx |xxxxxxxxxxxxx |xxxxxxxxxxxxx |xxxxxxxxxxxxx |    107886580 |    107886580 |    107886580 |xxxxxxxxxxxxx |xxxxxxxxxxxxx |xxxxxxxxxxxxx |xxxxxxxxxxxxx |    258396183 |    258396183 |    258396183 |
bpred_bimod.addr_hits                        55085 |        55086 |        55086 |xxxxxxxxxxxxx |xxxxxxxxxxxxx |xxxxxxxxxxxxx |xxxxxxxxxxxxx |       115610 |       115609 |       115607 |xxxxxxxxxxxxx |xxxxxxxxxxxxx |xxxxxxxxxxxxx |xxxxxxxxxxxxx |       249736 |       249738 |       249739 |xxxxxxxxxxxxx |xxxxxxxxxxxxx |xxxxxxxxxxxxx |xxxxxxxxxxxxx |       551528 |       551527 |       551528 |xxxxxxxxxxxxx |xxxxxxxxxxxxx |xxxxxxxxxxxxx |xxxxxxxxxxxxx |      1183727 |      1183727 |      1183728 |xxxxxxxxxxxxx |xxxxxxxxxxxxx |xxxxxxxxxxxxx |xxxxxxxxxxxxx |      2553202 |      2553202 |      2553203 |xxxxxxxxxxxxx |xxxxxxxxxxxxx |xxxxxxxxxxxxx |xxxxxxxxxxxxx |      5373494 |      5373493 |      5373494 |xxxxxxxxxxxxx |xxxxxxxxxxxxx |xxxxxxxxxxxxx |xxxxxxxxxxxxx |     12096826 |     12096824 |     12096825 |xxxxxxxxxxxxx |xxxxxxxxxxxxx |xxxxxxxxxxxxx |xxxxxxxxxxxxx |     24462154 |     24462153 |     24462154 |xxxxxxxxxxxxx |xxxxxxxxxxxxx |xxxxxxxxxxxxx |xxxxxxxxxxxxx |     89666095 |     89666113 |     89666114 |xxxxxxxxxxxxx |xxxxxxxxxxxxx |xxxxxxxxxxxxx |xxxxxxxxxxxxx |    222093209 |    222093252 |    222093253 |
bpred_bimod.dir_hits                         55207 |        55205 |        55205 |xxxxxxxxxxxxx |xxxxxxxxxxxxx |xxxxxxxxxxxxx |xxxxxxxxxxxxx |       115726 |       115724 |       115723 |xxxxxxxxxxxxx |xxxxxxxxxxxxx |xxxxxxxxxxxxx |xxxxxxxxxxxxx |       249850 |       249853 |       249854 |xxxxxxxxxxxxx |xxxxxxxxxxxxx |xxxxxxxxxxxxx |xxxxxxxxxxxxx |       551646 |       551643 |       551643 |xxxxxxxxxxxxx |xxxxxxxxxxxxx |xxxxxxxxxxxxx |xxxxxxxxxxxxx |      1183841 |      1183840 |      1183841 |xxxxxxxxxxxxx |xxxxxxxxxxxxx |xxxxxxxxxxxxx |xxxxxxxxxxxxx |      2553320 |      2553318 |      2553318 |xxxxxxxxxxxxx |xxxxxxxxxxxxx |xxxxxxxxxxxxx |xxxxxxxxxxxxx |      5373610 |      5373608 |      5373609 |xxxxxxxxxxxxx |xxxxxxxxxxxxx |xxxxxxxxxxxxx |xxxxxxxxxxxxx |     12096944 |     12096940 |     12096940 |xxxxxxxxxxxxx |xxxxxxxxxxxxx |xxxxxxxxxxxxx |xxxxxxxxxxxxx |     24462270 |     24462267 |     24462267 |xxxxxxxxxxxxx |xxxxxxxxxxxxx |xxxxxxxxxxxxx |xxxxxxxxxxxxx |     89666265 |     89666280 |     89666279 |xxxxxxxxxxxxx |xxxxxxxxxxxxx |xxxxxxxxxxxxx |xxxxxxxxxxxxx |    222093376 |    222093416 |    222093416 |
bpred_bimod.misses                           21263 |        21265 |        21265 |xxxxxxxxxxxxx |xxxxxxxxxxxxx |xxxxxxxxxxxxx |xxxxxxxxxxxxx |        47379 |        47381 |        47382 |xxxxxxxxxxxxx |xxxxxxxxxxxxx |xxxxxxxxxxxxx |xxxxxxxxxxxxx |       101442 |       101439 |       101438 |xxxxxxxxxxxxx |xxxxxxxxxxxxx |xxxxxxxxxxxxx |xxxxxxxxxxxxx |       213490 |       213493 |       213493 |xxxxxxxxxxxxx |xxxxxxxxxxxxx |xxxxxxxxxxxxx |xxxxxxxxxxxxx |       459580 |       459581 |       459580 |xxxxxxxxxxxxx |xxxxxxxxxxxxx |xxxxxxxxxxxxx |xxxxxxxxxxxxx |       949497 |       949499 |       949499 |xxxxxxxxxxxxx |xxxxxxxxxxxxx |xxxxxxxxxxxxx |xxxxxxxxxxxxx |      2035706 |      2035708 |      2035707 |xxxxxxxxxxxxx |xxxxxxxxxxxxx |xxxxxxxxxxxxx |xxxxxxxxxxxxx |      4171628 |      4171632 |      4171632 |xxxxxxxxxxxxx |xxxxxxxxxxxxx |xxxxxxxxxxxxx |xxxxxxxxxxxxx |      8960241 |      8960244 |      8960244 |xxxxxxxxxxxxx |xxxxxxxxxxxxx |xxxxxxxxxxxxx |xxxxxxxxxxxxx |     18220315 |     18220300 |     18220301 |xxxxxxxxxxxxx |xxxxxxxxxxxxx |xxxxxxxxxxxxx |xxxxxxxxxxxxx |     36302807 |     36302767 |     36302767 |
bpred_bimod.jr_hits                             65 |           65 |           65 |xxxxxxxxxxxxx |xxxxxxxxxxxxx |xxxxxxxxxxxxx |xxxxxxxxxxxxx |           65 |           65 |           65 |xxxxxxxxxxxxx |xxxxxxxxxxxxx |xxxxxxxxxxxxx |xxxxxxxxxxxxx |           65 |           65 |           65 |xxxxxxxxxxxxx |xxxxxxxxxxxxx |xxxxxxxxxxxxx |xxxxxxxxxxxxx |           65 |           65 |           65 |xxxxxxxxxxxxx |xxxxxxxxxxxxx |xxxxxxxxxxxxx |xxxxxxxxxxxxx |           65 |           65 |           65 |xxxxxxxxxxxxx |xxxxxxxxxxxxx |xxxxxxxxxxxxx |xxxxxxxxxxxxx |           65 |           65 |           65 |xxxxxxxxxxxxx |xxxxxxxxxxxxx |xxxxxxxxxxxxx |xxxxxxxxxxxxx |           65 |           65 |           65 |xxxxxxxxxxxxx |xxxxxxxxxxxxx |xxxxxxxxxxxxx |xxxxxxxxxxxxx |           65 |           65 |           65 |xxxxxxxxxxxxx |xxxxxxxxxxxxx |xxxxxxxxxxxxx |xxxxxxxxxxxxx |           65 |           65 |           65 |xxxxxxxxxxxxx |xxxxxxxxxxxxx |xxxxxxxxxxxxx |xxxxxxxxxxxxx |          110 |          110 |          110 |xxxxxxxxxxxxx |xxxxxxxxxxxxx |xxxxxxxxxxxxx |xxxxxxxxxxxxx |          122 |          122 |          122 |
bpred_bimod.jr_seen                             65 |           65 |           65 |xxxxxxxxxxxxx |xxxxxxxxxxxxx |xxxxxxxxxxxxx |xxxxxxxxxxxxx |           65 |           65 |           65 |xxxxxxxxxxxxx |xxxxxxxxxxxxx |xxxxxxxxxxxxx |xxxxxxxxxxxxx |           65 |           65 |           65 |xxxxxxxxxxxxx |xxxxxxxxxxxxx |xxxxxxxxxxxxx |xxxxxxxxxxxxx |           65 |           65 |           65 |xxxxxxxxxxxxx |xxxxxxxxxxxxx |xxxxxxxxxxxxx |xxxxxxxxxxxxx |           65 |           65 |           65 |xxxxxxxxxxxxx |xxxxxxxxxxxxx |xxxxxxxxxxxxx |xxxxxxxxxxxxx |           65 |           65 |           65 |xxxxxxxxxxxxx |xxxxxxxxxxxxx |xxxxxxxxxxxxx |xxxxxxxxxxxxx |           65 |           65 |           65 |xxxxxxxxxxxxx |xxxxxxxxxxxxx |xxxxxxxxxxxxx |xxxxxxxxxxxxx |           65 |           65 |           65 |xxxxxxxxxxxxx |xxxxxxxxxxxxx |xxxxxxxxxxxxx |xxxxxxxxxxxxx |           65 |           65 |           65 |xxxxxxxxxxxxx |xxxxxxxxxxxxx |xxxxxxxxxxxxx |xxxxxxxxxxxxx |          111 |          111 |          111 |xxxxxxxxxxxxx |xxxxxxxxxxxxx |xxxxxxxxxxxxx |xxxxxxxxxxxxx |          123 |          123 |          123 |
bpred_bimod.jr_non_ras_hits.PP                   0 |            0 |            0 |xxxxxxxxxxxxx |xxxxxxxxxxxxx |xxxxxxxxxxxxx |xxxxxxxxxxxxx |            0 |            0 |            0 |xxxxxxxxxxxxx |xxxxxxxxxxxxx |xxxxxxxxxxxxx |xxxxxxxxxxxxx |            0 |            0 |            0 |xxxxxxxxxxxxx |xxxxxxxxxxxxx |xxxxxxxxxxxxx |xxxxxxxxxxxxx |            0 |            0 |            0 |xxxxxxxxxxxxx |xxxxxxxxxxxxx |xxxxxxxxxxxxx |xxxxxxxxxxxxx |            0 |            0 |            0 |xxxxxxxxxxxxx |xxxxxxxxxxxxx |xxxxxxxxxxxxx |xxxxxxxxxxxxx |            0 |            0 |            0 |xxxxxxxxxxxxx |xxxxxxxxxxxxx |xxxxxxxxxxxxx |xxxxxxxxxxxxx |            0 |            0 |            0 |xxxxxxxxxxxxx |xxxxxxxxxxxxx |xxxxxxxxxxxxx |xxxxxxxxxxxxx |            0 |            0 |            0 |xxxxxxxxxxxxx |xxxxxxxxxxxxx |xxxxxxxxxxxxx |xxxxxxxxxxxxx |            0 |            0 |            0 |xxxxxxxxxxxxx |xxxxxxxxxxxxx |xxxxxxxxxxxxx |xxxxxxxxxxxxx |            0 |            0 |            0 |xxxxxxxxxxxxx |xxxxxxxxxxxxx |xxxxxxxxxxxxx |xxxxxxxxxxxxx |            0 |            0 |            0 |
bpred_bimod.jr_non_ras_seen.PP                   0 |            0 |            0 |xxxxxxxxxxxxx |xxxxxxxxxxxxx |xxxxxxxxxxxxx |xxxxxxxxxxxxx |            0 |            0 |            0 |xxxxxxxxxxxxx |xxxxxxxxxxxxx |xxxxxxxxxxxxx |xxxxxxxxxxxxx |            0 |            0 |            0 |xxxxxxxxxxxxx |xxxxxxxxxxxxx |xxxxxxxxxxxxx |xxxxxxxxxxxxx |            0 |            0 |            0 |xxxxxxxxxxxxx |xxxxxxxxxxxxx |xxxxxxxxxxxxx |xxxxxxxxxxxxx |            0 |            0 |            0 |xxxxxxxxxxxxx |xxxxxxxxxxxxx |xxxxxxxxxxxxx |xxxxxxxxxxxxx |            0 |            0 |            0 |xxxxxxxxxxxxx |xxxxxxxxxxxxx |xxxxxxxxxxxxx |xxxxxxxxxxxxx |            0 |            0 |            0 |xxxxxxxxxxxxx |xxxxxxxxxxxxx |xxxxxxxxxxxxx |xxxxxxxxxxxxx |            0 |            0 |            0 |xxxxxxxxxxxxx |xxxxxxxxxxxxx |xxxxxxxxxxxxx |xxxxxxxxxxxxx |            0 |            0 |            0 |xxxxxxxxxxxxx |xxxxxxxxxxxxx |xxxxxxxxxxxxx |xxxxxxxxxxxxx |            1 |            1 |            1 |xxxxxxxxxxxxx |xxxxxxxxxxxxx |xxxxxxxxxxxxx |xxxxxxxxxxxxx |            1 |            1 |            1 |
bpred_bimod.bpred_addr_rate                 0.7203 |       0.7204 |       0.7204 |xxxxxxxxxxxxx |xxxxxxxxxxxxx |xxxxxxxxxxxxx |xxxxxxxxxxxxx |       0.7088 |       0.7088 |       0.7088 |xxxxxxxxxxxxx |xxxxxxxxxxxxx |xxxxxxxxxxxxx |xxxxxxxxxxxxx |       0.7109 |       0.7109 |       0.7109 |xxxxxxxxxxxxx |xxxxxxxxxxxxx |xxxxxxxxxxxxx |xxxxxxxxxxxxx |       0.7208 |       0.7208 |       0.7208 |xxxxxxxxxxxxx |xxxxxxxxxxxxx |xxxxxxxxxxxxx |xxxxxxxxxxxxx |       0.7203 |       0.7203 |       0.7203 |xxxxxxxxxxxxx |xxxxxxxxxxxxx |xxxxxxxxxxxxx |xxxxxxxxxxxxx |       0.7289 |       0.7289 |       0.7289 |xxxxxxxxxxxxx |xxxxxxxxxxxxx |xxxxxxxxxxxxx |xxxxxxxxxxxxx |       0.7252 |       0.7252 |       0.7252 |xxxxxxxxxxxxx |xxxxxxxxxxxxx |xxxxxxxxxxxxx |xxxxxxxxxxxxx |       0.7436 |       0.7436 |       0.7436 |xxxxxxxxxxxxx |xxxxxxxxxxxxx |xxxxxxxxxxxxx |xxxxxxxxxxxxx |       0.7319 |       0.7319 |       0.7319 |xxxxxxxxxxxxx |xxxxxxxxxxxxx |xxxxxxxxxxxxx |xxxxxxxxxxxxx |       0.8311 |       0.8311 |       0.8311 |xxxxxxxxxxxxx |xxxxxxxxxxxxx |xxxxxxxxxxxxx |xxxxxxxxxxxxx |       0.8595 |       0.8595 |       0.8595 |
bpred_bimod.bpred_dir_rate                  0.7219 |       0.7219 |       0.7219 |xxxxxxxxxxxxx |xxxxxxxxxxxxx |xxxxxxxxxxxxx |xxxxxxxxxxxxx |       0.7095 |       0.7095 |       0.7095 |xxxxxxxxxxxxx |xxxxxxxxxxxxx |xxxxxxxxxxxxx |xxxxxxxxxxxxx |       0.7112 |       0.7112 |       0.7112 |xxxxxxxxxxxxx |xxxxxxxxxxxxx |xxxxxxxxxxxxx |xxxxxxxxxxxxx |       0.7210 |       0.7210 |       0.7210 |xxxxxxxxxxxxx |xxxxxxxxxxxxx |xxxxxxxxxxxxx |xxxxxxxxxxxxx |       0.7204 |       0.7204 |       0.7204 |xxxxxxxxxxxxx |xxxxxxxxxxxxx |xxxxxxxxxxxxx |xxxxxxxxxxxxx |       0.7289 |       0.7289 |       0.7289 |xxxxxxxxxxxxx |xxxxxxxxxxxxx |xxxxxxxxxxxxx |xxxxxxxxxxxxx |       0.7253 |       0.7253 |       0.7253 |xxxxxxxxxxxxx |xxxxxxxxxxxxx |xxxxxxxxxxxxx |xxxxxxxxxxxxx |       0.7436 |       0.7436 |       0.7436 |xxxxxxxxxxxxx |xxxxxxxxxxxxx |xxxxxxxxxxxxx |xxxxxxxxxxxxx |       0.7319 |       0.7319 |       0.7319 |xxxxxxxxxxxxx |xxxxxxxxxxxxx |xxxxxxxxxxxxx |xxxxxxxxxxxxx |       0.8311 |       0.8311 |       0.8311 |xxxxxxxxxxxxx |xxxxxxxxxxxxx |xxxxxxxxxxxxx |xxxxxxxxxxxxx |       0.8595 |       0.8595 |       0.8595 |
bpred_bimod.bpred_jr_rate                   1.0000 |       1.0000 |       1.0000 |xxxxxxxxxxxxx |xxxxxxxxxxxxx |xxxxxxxxxxxxx |xxxxxxxxxxxxx |       1.0000 |       1.0000 |       1.0000 |xxxxxxxxxxxxx |xxxxxxxxxxxxx |xxxxxxxxxxxxx |xxxxxxxxxxxxx |       1.0000 |       1.0000 |       1.0000 |xxxxxxxxxxxxx |xxxxxxxxxxxxx |xxxxxxxxxxxxx |xxxxxxxxxxxxx |       1.0000 |       1.0000 |       1.0000 |xxxxxxxxxxxxx |xxxxxxxxxxxxx |xxxxxxxxxxxxx |xxxxxxxxxxxxx |       1.0000 |       1.0000 |       1.0000 |xxxxxxxxxxxxx |xxxxxxxxxxxxx |xxxxxxxxxxxxx |xxxxxxxxxxxxx |       1.0000 |       1.0000 |       1.0000 |xxxxxxxxxxxxx |xxxxxxxxxxxxx |xxxxxxxxxxxxx |xxxxxxxxxxxxx |       1.0000 |       1.0000 |       1.0000 |xxxxxxxxxxxxx |xxxxxxxxxxxxx |xxxxxxxxxxxxx |xxxxxxxxxxxxx |       1.0000 |       1.0000 |       1.0000 |xxxxxxxxxxxxx |xxxxxxxxxxxxx |xxxxxxxxxxxxx |xxxxxxxxxxxxx |       1.0000 |       1.0000 |       1.0000 |xxxxxxxxxxxxx |xxxxxxxxxxxxx |xxxxxxxxxxxxx |xxxxxxxxxxxxx |       0.9910 |       0.9910 |       0.9910 |xxxxxxxxxxxxx |xxxxxxxxxxxxx |xxxxxxxxxxxxx |xxxxxxxxxxxxx |       0.9919 |       0.9919 |       0.9919 |
bpred_bimod.bpred_jr_non_ras_rate.PP       <error: |      <error: |      <error: |xxxxxxxxxxxxx |xxxxxxxxxxxxx |xxxxxxxxxxxxx |xxxxxxxxxxxxx |      <error: |      <error: |      <error: |xxxxxxxxxxxxx |xxxxxxxxxxxxx |xxxxxxxxxxxxx |xxxxxxxxxxxxx |      <error: |      <error: |      <error: |xxxxxxxxxxxxx |xxxxxxxxxxxxx |xxxxxxxxxxxxx |xxxxxxxxxxxxx |      <error: |      <error: |      <error: |xxxxxxxxxxxxx |xxxxxxxxxxxxx |xxxxxxxxxxxxx |xxxxxxxxxxxxx |      <error: |      <error: |      <error: |xxxxxxxxxxxxx |xxxxxxxxxxxxx |xxxxxxxxxxxxx |xxxxxxxxxxxxx |      <error: |      <error: |      <error: |xxxxxxxxxxxxx |xxxxxxxxxxxxx |xxxxxxxxxxxxx |xxxxxxxxxxxxx |      <error: |      <error: |      <error: |xxxxxxxxxxxxx |xxxxxxxxxxxxx |xxxxxxxxxxxxx |xxxxxxxxxxxxx |      <error: |      <error: |      <error: |xxxxxxxxxxxxx |xxxxxxxxxxxxx |xxxxxxxxxxxxx |xxxxxxxxxxxxx |      <error: |      <error: |      <error: |xxxxxxxxxxxxx |xxxxxxxxxxxxx |xxxxxxxxxxxxx |xxxxxxxxxxxxx |       0.0000 |       0.0000 |       0.0000 |xxxxxxxxxxxxx |xxxxxxxxxxxxx |xxxxxxxxxxxxx |xxxxxxxxxxxxx |       0.0000 |       0.0000 |       0.0000 |
bpred_bimod.retstack_pushes                     67 |           67 |           67 |xxxxxxxxxxxxx |xxxxxxxxxxxxx |xxxxxxxxxxxxx |xxxxxxxxxxxxx |           67 |           67 |           67 |xxxxxxxxxxxxx |xxxxxxxxxxxxx |xxxxxxxxxxxxx |xxxxxxxxxxxxx |           67 |           67 |           67 |xxxxxxxxxxxxx |xxxxxxxxxxxxx |xxxxxxxxxxxxx |xxxxxxxxxxxxx |           67 |           67 |           67 |xxxxxxxxxxxxx |xxxxxxxxxxxxx |xxxxxxxxxxxxx |xxxxxxxxxxxxx |           67 |           67 |           67 |xxxxxxxxxxxxx |xxxxxxxxxxxxx |xxxxxxxxxxxxx |xxxxxxxxxxxxx |           67 |           67 |           67 |xxxxxxxxxxxxx |xxxxxxxxxxxxx |xxxxxxxxxxxxx |xxxxxxxxxxxxx |           67 |           67 |           67 |xxxxxxxxxxxxx |xxxxxxxxxxxxx |xxxxxxxxxxxxx |xxxxxxxxxxxxx |           67 |           67 |           67 |xxxxxxxxxxxxx |xxxxxxxxxxxxx |xxxxxxxxxxxxx |xxxxxxxxxxxxx |           67 |           67 |           67 |xxxxxxxxxxxxx |xxxxxxxxxxxxx |xxxxxxxxxxxxx |xxxxxxxxxxxxx |          112 |          112 |          112 |xxxxxxxxxxxxx |xxxxxxxxxxxxx |xxxxxxxxxxxxx |xxxxxxxxxxxxx |          124 |          124 |          124 |
bpred_bimod.retstack_pops                       65 |           65 |           65 |xxxxxxxxxxxxx |xxxxxxxxxxxxx |xxxxxxxxxxxxx |xxxxxxxxxxxxx |           65 |           65 |           65 |xxxxxxxxxxxxx |xxxxxxxxxxxxx |xxxxxxxxxxxxx |xxxxxxxxxxxxx |           65 |           65 |           65 |xxxxxxxxxxxxx |xxxxxxxxxxxxx |xxxxxxxxxxxxx |xxxxxxxxxxxxx |           65 |           65 |           65 |xxxxxxxxxxxxx |xxxxxxxxxxxxx |xxxxxxxxxxxxx |xxxxxxxxxxxxx |           65 |           65 |           65 |xxxxxxxxxxxxx |xxxxxxxxxxxxx |xxxxxxxxxxxxx |xxxxxxxxxxxxx |           65 |           65 |           65 |xxxxxxxxxxxxx |xxxxxxxxxxxxx |xxxxxxxxxxxxx |xxxxxxxxxxxxx |           65 |           65 |           65 |xxxxxxxxxxxxx |xxxxxxxxxxxxx |xxxxxxxxxxxxx |xxxxxxxxxxxxx |           65 |           65 |           65 |xxxxxxxxxxxxx |xxxxxxxxxxxxx |xxxxxxxxxxxxx |xxxxxxxxxxxxx |           65 |           65 |           65 |xxxxxxxxxxxxx |xxxxxxxxxxxxx |xxxxxxxxxxxxx |xxxxxxxxxxxxx |          110 |          110 |          110 |xxxxxxxxxxxxx |xxxxxxxxxxxxx |xxxxxxxxxxxxx |xxxxxxxxxxxxx |          122 |          122 |          122 |
bpred_bimod.used_ras.PP                         65 |           65 |           65 |xxxxxxxxxxxxx |xxxxxxxxxxxxx |xxxxxxxxxxxxx |xxxxxxxxxxxxx |           65 |           65 |           65 |xxxxxxxxxxxxx |xxxxxxxxxxxxx |xxxxxxxxxxxxx |xxxxxxxxxxxxx |           65 |           65 |           65 |xxxxxxxxxxxxx |xxxxxxxxxxxxx |xxxxxxxxxxxxx |xxxxxxxxxxxxx |           65 |           65 |           65 |xxxxxxxxxxxxx |xxxxxxxxxxxxx |xxxxxxxxxxxxx |xxxxxxxxxxxxx |           65 |           65 |           65 |xxxxxxxxxxxxx |xxxxxxxxxxxxx |xxxxxxxxxxxxx |xxxxxxxxxxxxx |           65 |           65 |           65 |xxxxxxxxxxxxx |xxxxxxxxxxxxx |xxxxxxxxxxxxx |xxxxxxxxxxxxx |           65 |           65 |           65 |xxxxxxxxxxxxx |xxxxxxxxxxxxx |xxxxxxxxxxxxx |xxxxxxxxxxxxx |           65 |           65 |           65 |xxxxxxxxxxxxx |xxxxxxxxxxxxx |xxxxxxxxxxxxx |xxxxxxxxxxxxx |           65 |           65 |           65 |xxxxxxxxxxxxx |xxxxxxxxxxxxx |xxxxxxxxxxxxx |xxxxxxxxxxxxx |          110 |          110 |          110 |xxxxxxxxxxxxx |xxxxxxxxxxxxx |xxxxxxxxxxxxx |xxxxxxxxxxxxx |          122 |          122 |          122 |
bpred_bimod.ras_hits.PP                         65 |           65 |           65 |xxxxxxxxxxxxx |xxxxxxxxxxxxx |xxxxxxxxxxxxx |xxxxxxxxxxxxx |           65 |           65 |           65 |xxxxxxxxxxxxx |xxxxxxxxxxxxx |xxxxxxxxxxxxx |xxxxxxxxxxxxx |           65 |           65 |           65 |xxxxxxxxxxxxx |xxxxxxxxxxxxx |xxxxxxxxxxxxx |xxxxxxxxxxxxx |           65 |           65 |           65 |xxxxxxxxxxxxx |xxxxxxxxxxxxx |xxxxxxxxxxxxx |xxxxxxxxxxxxx |           65 |           65 |           65 |xxxxxxxxxxxxx |xxxxxxxxxxxxx |xxxxxxxxxxxxx |xxxxxxxxxxxxx |           65 |           65 |           65 |xxxxxxxxxxxxx |xxxxxxxxxxxxx |xxxxxxxxxxxxx |xxxxxxxxxxxxx |           65 |           65 |           65 |xxxxxxxxxxxxx |xxxxxxxxxxxxx |xxxxxxxxxxxxx |xxxxxxxxxxxxx |           65 |           65 |           65 |xxxxxxxxxxxxx |xxxxxxxxxxxxx |xxxxxxxxxxxxx |xxxxxxxxxxxxx |           65 |           65 |           65 |xxxxxxxxxxxxx |xxxxxxxxxxxxx |xxxxxxxxxxxxx |xxxxxxxxxxxxx |          110 |          110 |          110 |xxxxxxxxxxxxx |xxxxxxxxxxxxx |xxxxxxxxxxxxx |xxxxxxxxxxxxx |          122 |          122 |          122 |
bpred_bimod.ras_rate.PP                     1.0000 |       1.0000 |       1.0000 |xxxxxxxxxxxxx |xxxxxxxxxxxxx |xxxxxxxxxxxxx |xxxxxxxxxxxxx |       1.0000 |       1.0000 |       1.0000 |xxxxxxxxxxxxx |xxxxxxxxxxxxx |xxxxxxxxxxxxx |xxxxxxxxxxxxx |       1.0000 |       1.0000 |       1.0000 |xxxxxxxxxxxxx |xxxxxxxxxxxxx |xxxxxxxxxxxxx |xxxxxxxxxxxxx |       1.0000 |       1.0000 |       1.0000 |xxxxxxxxxxxxx |xxxxxxxxxxxxx |xxxxxxxxxxxxx |xxxxxxxxxxxxx |       1.0000 |       1.0000 |       1.0000 |xxxxxxxxxxxxx |xxxxxxxxxxxxx |xxxxxxxxxxxxx |xxxxxxxxxxxxx |       1.0000 |       1.0000 |       1.0000 |xxxxxxxxxxxxx |xxxxxxxxxxxxx |xxxxxxxxxxxxx |xxxxxxxxxxxxx |       1.0000 |       1.0000 |       1.0000 |xxxxxxxxxxxxx |xxxxxxxxxxxxx |xxxxxxxxxxxxx |xxxxxxxxxxxxx |       1.0000 |       1.0000 |       1.0000 |xxxxxxxxxxxxx |xxxxxxxxxxxxx |xxxxxxxxxxxxx |xxxxxxxxxxxxx |       1.0000 |       1.0000 |       1.0000 |xxxxxxxxxxxxx |xxxxxxxxxxxxx |xxxxxxxxxxxxx |xxxxxxxxxxxxx |       1.0000 |       1.0000 |       1.0000 |xxxxxxxxxxxxx |xxxxxxxxxxxxx |xxxxxxxxxxxxx |xxxxxxxxxxxxx |       1.0000 |       1.0000 |       1.0000 |
bpred_2lev.lookups                   xxxxxxxxxxxxx |xxxxxxxxxxxxx |xxxxxxxxxxxxx |        76470 |        76470 |        76470 |        76470 |xxxxxxxxxxxxx |xxxxxxxxxxxxx |xxxxxxxxxxxxx |       163105 |       163105 |       163105 |       163105 |xxxxxxxxxxxxx |xxxxxxxxxxxxx |xxxxxxxxxxxxx |       351292 |       351292 |       351292 |       351292 |xxxxxxxxxxxxx |xxxxxxxxxxxxx |xxxxxxxxxxxxx |       765136 |       765136 |       765136 |       765136 |xxxxxxxxxxxxx |xxxxxxxxxxxxx |xxxxxxxxxxxxx |      1643421 |      1643421 |      1643421 |      1643421 |xxxxxxxxxxxxx |xxxxxxxxxxxxx |xxxxxxxxxxxxx |      3502817 |      3502817 |      3502817 |      3502817 |xxxxxxxxxxxxx |xxxxxxxxxxxxx |xxxxxxxxxxxxx |      7409316 |      7409316 |      7409316 |      7409316 |xxxxxxxxxxxxx |xxxxxxxxxxxxx |xxxxxxxxxxxxx |     16268572 |     16268572 |     16268572 |     16268572 |xxxxxxxxxxxxx |xxxxxxxxxxxxx |xxxxxxxxxxxxx |     33422511 |     33422511 |     33422511 |     33422511 |xxxxxxxxxxxxx |xxxxxxxxxxxxx |xxxxxxxxxxxxx |    107886580 |    107886580 |    107886580 |    107886580 |xxxxxxxxxxxxx |xxxxxxxxxxxxx |xxxxxxxxxxxxx |    258396183 |    258396183 |    258396183 |    258396183 |
[...]
bpred_2lev.retstack_pops             xxxxxxxxxxxxx |xxxxxxxxxxxxx |xxxxxxxxxxxxx |           65 |           65 |           65 |           65 |xxxxxxxxxxxxx |xxxxxxxxxxxxx |xxxxxxxxxxxxx |           65 |           65 |           65 |           65 |xxxxxxxxxxxxx |xxxxxxxxxxxxx |xxxxxxxxxxxxx |           65 |           65 |           65 |           65 |xxxxxxxxxxxxx |xxxxxxxxxxxxx |xxxxxxxxxxxxx |           65 |           65 |           65 |           65 |xxxxxxxxxxxxx |xxxxxxxxxxxxx |xxxxxxxxxxxxx |           65 |           65 |           65 |           65 |xxxxxxxxxxxxx |xxxxxxxxxxxxx |xxxxxxxxxxxxx |           65 |           65 |           65 |           65 |xxxxxxxxxxxxx |xxxxxxxxxxxxx |xxxxxxxxxxxxx |           65 |           65 |           65 |           65 |xxxxxxxxxxxxx |xxxxxxxxxxxxx |xxxxxxxxxxxxx |           65 |           65 |           65 |           65 |xxxxxxxxxxxxx |xxxxxxxxxxxxx |xxxxxxxxxxxxx |           65 |           65 |           65 |           65 |xxxxxxxxxxxxx |xxxxxxxxxxxxx |xxxxxxxxxxxxx |          110 |          110 |          110 |          110 |xxxxxxxxxxxxx |xxxxxxxxxxxxx |xxxxxxxxxxxxx |          122 |          122 |          122 |          122 |
bpred_2lev.used_ras.PP               xxxxxxxxxxxxx |xxxxxxxxxxxxx |xxxxxxxxxxxxx |           65 |           65 |           65 |           65 |xxxxxxxxxxxxx |xxxxxxxxxxxxx |xxxxxxxxxxxxx |           65 |           65 |           65 |           65 |xxxxxxxxxxxxx |xxxxxxxxxxxxx |xxxxxxxxxxxxx |           65 |           65 |           65 |           65 |xxxxxxxxxxxxx |xxxxxxxxxxxxx |xxxxxxxxxxxxx |           65 |           65 |           65 |           65 |xxxxxxxxxxxxx |xxxxxxxxxxxxx |xxxxxxxxxxxxx |           65 |           65 |           65 |           65 |xxxxxxxxxxxxx |xxxxxxxxxxxxx |xxxxxxxxxxxxx |           65 |           65 |           65 |           65 |xxxxxxxxxxxxx |xxxxxxxxxxxxx |xxxxxxxxxxxxx |           65 |           65 |           65 |           65 |xxxxxxxxxxxxx |xxxxxxxxxxxxx |xxxxxxxxxxxxx |           65 |           65 |           65 |           65 |xxxxxxxxxxxxx |xxxxxxxxxxxxx |xxxxxxxxxxxxx |           65 |           65 |           65 |           65 |xxxxxxxxxxxxx |xxxxxxxxxxxxx |xxxxxxxxxxxxx |          110 |          110 |          110 |          110 |xxxxxxxxxxxxx |xxxxxxxxxxxxx |xxxxxxxxxxxxx |          122 |          122 |          122 |          122 |
bpred_2lev.ras_hits.PP               xxxxxxxxxxxxx |xxxxxxxxxxxxx |xxxxxxxxxxxxx |           65 |           65 |           65 |           65 |xxxxxxxxxxxxx |xxxxxxxxxxxxx |xxxxxxxxxxxxx |           65 |           65 |           65 |           65 |xxxxxxxxxxxxx |xxxxxxxxxxxxx |xxxxxxxxxxxxx |           65 |           65 |           65 |           65 |xxxxxxxxxxxxx |xxxxxxxxxxxxx |xxxxxxxxxxxxx |           65 |           65 |           65 |           65 |xxxxxxxxxxxxx |xxxxxxxxxxxxx |xxxxxxxxxxxxx |           65 |           65 |           65 |           65 |xxxxxxxxxxxxx |xxxxxxxxxxxxx |xxxxxxxxxxxxx |           65 |           65 |           65 |           65 |xxxxxxxxxxxxx |xxxxxxxxxxxxx |xxxxxxxxxxxxx |           65 |           65 |           65 |           65 |xxxxxxxxxxxxx |xxxxxxxxxxxxx |xxxxxxxxxxxxx |           65 |           65 |           65 |           65 |xxxxxxxxxxxxx |xxxxxxxxxxxxx |xxxxxxxxxxxxx |           65 |           65 |           65 |           65 |xxxxxxxxxxxxx |xxxxxxxxxxxxx |xxxxxxxxxxxxx |          110 |          110 |          110 |          110 |xxxxxxxxxxxxx |xxxxxxxxxxxxx |xxxxxxxxxxxxx |          122 |          122 |          122 |          122 |
bpred_2lev.ras_rate.PP               xxxxxxxxxxxxx |xxxxxxxxxxxxx |xxxxxxxxxxxxx |       1.0000 |       1.0000 |       1.0000 |       1.0000 |xxxxxxxxxxxxx |xxxxxxxxxxxxx |xxxxxxxxxxxxx |       1.0000 |       1.0000 |       1.0000 |       1.0000 |xxxxxxxxxxxxx |xxxxxxxxxxxxx |xxxxxxxxxxxxx |       1.0000 |       1.0000 |       1.0000 |       1.0000 |xxxxxxxxxxxxx |xxxxxxxxxxxxx |xxxxxxxxxxxxx |       1.0000 |       1.0000 |       1.0000 |       1.0000 |xxxxxxxxxxxxx |xxxxxxxxxxxxx |xxxxxxxxxxxxx |       1.0000 |       1.0000 |       1.0000 |       1.0000 |xxxxxxxxxxxxx |xxxxxxxxxxxxx |xxxxxxxxxxxxx |       1.0000 |       1.0000 |       1.0000 |       1.0000 |xxxxxxxxxxxxx |xxxxxxxxxxxxx |xxxxxxxxxxxxx |       1.0000 |       1.0000 |       1.0000 |       1.0000 |xxxxxxxxxxxxx |xxxxxxxxxxxxx |xxxxxxxxxxxxx |       1.0000 |       1.0000 |       1.0000 |       1.0000 |xxxxxxxxxxxxx |xxxxxxxxxxxxx |xxxxxxxxxxxxx |       1.0000 |       1.0000 |       1.0000 |       1.0000 |xxxxxxxxxxxxx |xxxxxxxxxxxxx |xxxxxxxxxxxxx |       1.0000 |       1.0000 |       1.0000 |       1.0000 |xxxxxxxxxxxxx |xxxxxxxxxxxxx |xxxxxxxxxxxxx |       1.0000 |       1.0000 |       1.0000 |       1.0000 |

Command list: 
	sslittle-na-sstrix-gcc -Wall -O3 -funroll-loops -finline-functions  -DRANDOM_SIZE=4096 -DOFFSET=9 -DSORT=multi_quicksort_seq sorts/multi_quicksort_seq2038865828.c simpleMain.c -o multi_quicksort_seq1915563509
	sim-cache -cache:dl1 dl1:256:32:1:l -cache:dl2 dl2:131072:32:1:l -cache:il1 il1:256:32:1:l -cache:il2 dl2 multi_quicksort_seq1915563509
	sim-cache -cache:dl1 dl1:256:32:1:l -cache:dl2 dl2:65536:32:1:l -cache:il1 il1:256:32:1:l -cache:il2 dl2 multi_quicksort_seq1915563509
	sim-cache -cache:dl1 dl1:1:32:256:l -cache:dl2 dl2:1:32:131072:l -cache:il1 il1:1:32:256:l -cache:il2 dl2 multi_quicksort_seq1915563509
	sim-cache -cache:dl1 dl1:1:32:256:l -cache:dl2 dl2:1:32:65536:l -cache:il1 il1:1:32:256:l -cache:il2 dl2 multi_quicksort_seq1915563509
	sim-bpred -bpred bimod -bpred:bimod 512 multi_quicksort_seq1915563509
	sim-bpred -bpred bimod -bpred:bimod 1024 multi_quicksort_seq1915563509
	sim-bpred -bpred bimod -bpred:bimod 2048 multi_quicksort_seq1915563509
	sim-bpred -bpred 2lev -bpred:2lev 1 512 10 1 multi_quicksort_seq1915563509
	sim-bpred -bpred 2lev -bpred:2lev 1 1024 10 1 multi_quicksort_seq1915563509
	sim-bpred -bpred 2lev -bpred:2lev 1 2048 10 1 multi_quicksort_seq1915563509
	sim-bpred -bpred 2lev -bpred:2lev 1 4096 10 1 multi_quicksort_seq1915563509
	sslittle-na-sstrix-gcc -Wall -O3 -funroll-loops -finline-functions  -DRANDOM_SIZE=8192 -DOFFSET=9 -DSORT=multi_quicksort_seq sorts/multi_quicksort_seq2038865828.c simpleMain.c -o multi_quicksort_seq1915563509
	sim-cache -cache:dl1 dl1:256:32:1:l -cache:dl2 dl2:131072:32:1:l -cache:il1 il1:256:32:1:l -cache:il2 dl2 multi_quicksort_seq1915563509
	sim-cache -cache:dl1 dl1:256:32:1:l -cache:dl2 dl2:65536:32:1:l -cache:il1 il1:256:32:1:l -cache:il2 dl2 multi_quicksort_seq1915563509
	sim-cache -cache:dl1 dl1:1:32:256:l -cache:dl2 dl2:1:32:131072:l -cache:il1 il1:1:32:256:l -cache:il2 dl2 multi_quicksort_seq1915563509
	sim-cache -cache:dl1 dl1:1:32:256:l -cache:dl2 dl2:1:32:65536:l -cache:il1 il1:1:32:256:l -cache:il2 dl2 multi_quicksort_seq1915563509
	sim-bpred -bpred bimod -bpred:bimod 512 multi_quicksort_seq1915563509
	sim-bpred -bpred bimod -bpred:bimod 1024 multi_quicksort_seq1915563509
	sim-bpred -bpred bimod -bpred:bimod 2048 multi_quicksort_seq1915563509
	sim-bpred -bpred 2lev -bpred:2lev 1 512 10 1 multi_quicksort_seq1915563509
	sim-bpred -bpred 2lev -bpred:2lev 1 1024 10 1 multi_quicksort_seq1915563509
	sim-bpred -bpred 2lev -bpred:2lev 1 2048 10 1 multi_quicksort_seq1915563509
	sim-bpred -bpred 2lev -bpred:2lev 1 4096 10 1 multi_quicksort_seq1915563509
	sslittle-na-sstrix-gcc -Wall -O3 -funroll-loops -finline-functions  -DRANDOM_SIZE=16384 -DOFFSET=9 -DSORT=multi_quicksort_seq sorts/multi_quicksort_seq2038865828.c simpleMain.c -o multi_quicksort_seq1915563509
	sim-cache -cache:dl1 dl1:256:32:1:l -cache:dl2 dl2:131072:32:1:l -cache:il1 il1:256:32:1:l -cache:il2 dl2 multi_quicksort_seq1915563509
	sim-cache -cache:dl1 dl1:256:32:1:l -cache:dl2 dl2:65536:32:1:l -cache:il1 il1:256:32:1:l -cache:il2 dl2 multi_quicksort_seq1915563509
	sim-cache -cache:dl1 dl1:1:32:256:l -cache:dl2 dl2:1:32:131072:l -cache:il1 il1:1:32:256:l -cache:il2 dl2 multi_quicksort_seq1915563509
	sim-cache -cache:dl1 dl1:1:32:256:l -cache:dl2 dl2:1:32:65536:l -cache:il1 il1:1:32:256:l -cache:il2 dl2 multi_quicksort_seq1915563509
	sim-bpred -bpred bimod -bpred:bimod 512 multi_quicksort_seq1915563509
	sim-bpred -bpred bimod -bpred:bimod 1024 multi_quicksort_seq1915563509
	sim-bpred -bpred bimod -bpred:bimod 2048 multi_quicksort_seq1915563509
	sim-bpred -bpred 2lev -bpred:2lev 1 512 10 1 multi_quicksort_seq1915563509
	sim-bpred -bpred 2lev -bpred:2lev 1 1024 10 1 multi_quicksort_seq1915563509
	sim-bpred -bpred 2lev -bpred:2lev 1 2048 10 1 multi_quicksort_seq1915563509
	sim-bpred -bpred 2lev -bpred:2lev 1 4096 10 1 multi_quicksort_seq1915563509
	sslittle-na-sstrix-gcc -Wall -O3 -funroll-loops -finline-functions  -DRANDOM_SIZE=32768 -DOFFSET=9 -DSORT=multi_quicksort_seq sorts/multi_quicksort_seq2038865828.c simpleMain.c -o multi_quicksort_seq1915563509
	sim-cache -cache:dl1 dl1:256:32:1:l -cache:dl2 dl2:131072:32:1:l -cache:il1 il1:256:32:1:l -cache:il2 dl2 multi_quicksort_seq1915563509
	sim-cache -cache:dl1 dl1:256:32:1:l -cache:dl2 dl2:65536:32:1:l -cache:il1 il1:256:32:1:l -cache:il2 dl2 multi_quicksort_seq1915563509
	sim-cache -cache:dl1 dl1:1:32:256:l -cache:dl2 dl2:1:32:131072:l -cache:il1 il1:1:32:256:l -cache:il2 dl2 multi_quicksort_seq1915563509
	sim-cache -cache:dl1 dl1:1:32:256:l -cache:dl2 dl2:1:32:65536:l -cache:il1 il1:1:32:256:l -cache:il2 dl2 multi_quicksort_seq1915563509
	sim-bpred -bpred bimod -bpred:bimod 512 multi_quicksort_seq1915563509
	sim-bpred -bpred bimod -bpred:bimod 1024 multi_quicksort_seq1915563509
	sim-bpred -bpred bimod -bpred:bimod 2048 multi_quicksort_seq1915563509
	sim-bpred -bpred 2lev -bpred:2lev 1 512 10 1 multi_quicksort_seq1915563509
	sim-bpred -bpred 2lev -bpred:2lev 1 1024 10 1 multi_quicksort_seq1915563509
	sim-bpred -bpred 2lev -bpred:2lev 1 2048 10 1 multi_quicksort_seq1915563509
	sim-bpred -bpred 2lev -bpred:2lev 1 4096 10 1 multi_quicksort_seq1915563509
	sslittle-na-sstrix-gcc -Wall -O3 -funroll-loops -finline-functions  -DRANDOM_SIZE=65536 -DOFFSET=9 -DSORT=multi_quicksort_seq sorts/multi_quicksort_seq2038865828.c simpleMain.c -o multi_quicksort_seq1915563509
	sim-cache -cache:dl1 dl1:256:32:1:l -cache:dl2 dl2:131072:32:1:l -cache:il1 il1:256:32:1:l -cache:il2 dl2 multi_quicksort_seq1915563509
	sim-cache -cache:dl1 dl1:256:32:1:l -cache:dl2 dl2:65536:32:1:l -cache:il1 il1:256:32:1:l -cache:il2 dl2 multi_quicksort_seq1915563509
	sim-cache -cache:dl1 dl1:1:32:256:l -cache:dl2 dl2:1:32:131072:l -cache:il1 il1:1:32:256:l -cache:il2 dl2 multi_quicksort_seq1915563509
	sim-cache -cache:dl1 dl1:1:32:256:l -cache:dl2 dl2:1:32:65536:l -cache:il1 il1:1:32:256:l -cache:il2 dl2 multi_quicksort_seq1915563509
	sim-bpred -bpred bimod -bpred:bimod 512 multi_quicksort_seq1915563509
	sim-bpred -bpred bimod -bpred:bimod 1024 multi_quicksort_seq1915563509
	sim-bpred -bpred bimod -bpred:bimod 2048 multi_quicksort_seq1915563509
	sim-bpred -bpred 2lev -bpred:2lev 1 512 10 1 multi_quicksort_seq1915563509
	sim-bpred -bpred 2lev -bpred:2lev 1 1024 10 1 multi_quicksort_seq1915563509
	sim-bpred -bpred 2lev -bpred:2lev 1 2048 10 1 multi_quicksort_seq1915563509
	sim-bpred -bpred 2lev -bpred:2lev 1 4096 10 1 multi_quicksort_seq1915563509
	sslittle-na-sstrix-gcc -Wall -O3 -funroll-loops -finline-functions  -DRANDOM_SIZE=131072 -DOFFSET=9 -DSORT=multi_quicksort_seq sorts/multi_quicksort_seq2038865828.c simpleMain.c -o multi_quicksort_seq1915563509
	sim-cache -cache:dl1 dl1:256:32:1:l -cache:dl2 dl2:131072:32:1:l -cache:il1 il1:256:32:1:l -cache:il2 dl2 multi_quicksort_seq1915563509
	sim-cache -cache:dl1 dl1:256:32:1:l -cache:dl2 dl2:65536:32:1:l -cache:il1 il1:256:32:1:l -cache:il2 dl2 multi_quicksort_seq1915563509
	sim-cache -cache:dl1 dl1:1:32:256:l -cache:dl2 dl2:1:32:131072:l -cache:il1 il1:1:32:256:l -cache:il2 dl2 multi_quicksort_seq1915563509
	sim-cache -cache:dl1 dl1:1:32:256:l -cache:dl2 dl2:1:32:65536:l -cache:il1 il1:1:32:256:l -cache:il2 dl2 multi_quicksort_seq1915563509
	sim-bpred -bpred bimod -bpred:bimod 512 multi_quicksort_seq1915563509
	sim-bpred -bpred bimod -bpred:bimod 1024 multi_quicksort_seq1915563509
	sim-bpred -bpred bimod -bpred:bimod 2048 multi_quicksort_seq1915563509
	sim-bpred -bpred 2lev -bpred:2lev 1 512 10 1 multi_quicksort_seq1915563509
	sim-bpred -bpred 2lev -bpred:2lev 1 1024 10 1 multi_quicksort_seq1915563509
	sim-bpred -bpred 2lev -bpred:2lev 1 2048 10 1 multi_quicksort_seq1915563509
	sim-bpred -bpred 2lev -bpred:2lev 1 4096 10 1 multi_quicksort_seq1915563509
	sslittle-na-sstrix-gcc -Wall -O3 -funroll-loops -finline-functions  -DRANDOM_SIZE=262144 -DOFFSET=9 -DSORT=multi_quicksort_seq sorts/multi_quicksort_seq2038865828.c simpleMain.c -o multi_quicksort_seq1915563509
	sim-cache -cache:dl1 dl1:256:32:1:l -cache:dl2 dl2:131072:32:1:l -cache:il1 il1:256:32:1:l -cache:il2 dl2 multi_quicksort_seq1915563509
	sim-cache -cache:dl1 dl1:256:32:1:l -cache:dl2 dl2:65536:32:1:l -cache:il1 il1:256:32:1:l -cache:il2 dl2 multi_quicksort_seq1915563509
	sim-cache -cache:dl1 dl1:1:32:256:l -cache:dl2 dl2:1:32:131072:l -cache:il1 il1:1:32:256:l -cache:il2 dl2 multi_quicksort_seq1915563509
	sim-cache -cache:dl1 dl1:1:32:256:l -cache:dl2 dl2:1:32:65536:l -cache:il1 il1:1:32:256:l -cache:il2 dl2 multi_quicksort_seq1915563509
	sim-bpred -bpred bimod -bpred:bimod 512 multi_quicksort_seq1915563509
	sim-bpred -bpred bimod -bpred:bimod 1024 multi_quicksort_seq1915563509
	sim-bpred -bpred bimod -bpred:bimod 2048 multi_quicksort_seq1915563509
	sim-bpred -bpred 2lev -bpred:2lev 1 512 10 1 multi_quicksort_seq1915563509
	sim-bpred -bpred 2lev -bpred:2lev 1 1024 10 1 multi_quicksort_seq1915563509
	sim-bpred -bpred 2lev -bpred:2lev 1 2048 10 1 multi_quicksort_seq1915563509
	sim-bpred -bpred 2lev -bpred:2lev 1 4096 10 1 multi_quicksort_seq1915563509
	sslittle-na-sstrix-gcc -Wall -O3 -funroll-loops -finline-functions  -DRANDOM_SIZE=524288 -DOFFSET=9 -DSORT=multi_quicksort_seq sorts/multi_quicksort_seq2038865828.c simpleMain.c -o multi_quicksort_seq1915563509
	sim-cache -cache:dl1 dl1:256:32:1:l -cache:dl2 dl2:131072:32:1:l -cache:il1 il1:256:32:1:l -cache:il2 dl2 multi_quicksort_seq1915563509
	sim-cache -cache:dl1 dl1:256:32:1:l -cache:dl2 dl2:65536:32:1:l -cache:il1 il1:256:32:1:l -cache:il2 dl2 multi_quicksort_seq1915563509
	sim-cache -cache:dl1 dl1:1:32:256:l -cache:dl2 dl2:1:32:131072:l -cache:il1 il1:1:32:256:l -cache:il2 dl2 multi_quicksort_seq1915563509
	sim-cache -cache:dl1 dl1:1:32:256:l -cache:dl2 dl2:1:32:65536:l -cache:il1 il1:1:32:256:l -cache:il2 dl2 multi_quicksort_seq1915563509
	sim-bpred -bpred bimod -bpred:bimod 512 multi_quicksort_seq1915563509
	sim-bpred -bpred bimod -bpred:bimod 1024 multi_quicksort_seq1915563509
	sim-bpred -bpred bimod -bpred:bimod 2048 multi_quicksort_seq1915563509
	sim-bpred -bpred 2lev -bpred:2lev 1 512 10 1 multi_quicksort_seq1915563509
	sim-bpred -bpred 2lev -bpred:2lev 1 1024 10 1 multi_quicksort_seq1915563509
	sim-bpred -bpred 2lev -bpred:2lev 1 2048 10 1 multi_quicksort_seq1915563509
	sim-bpred -bpred 2lev -bpred:2lev 1 4096 10 1 multi_quicksort_seq1915563509
	sslittle-na-sstrix-gcc -Wall -O3 -funroll-loops -finline-functions  -DRANDOM_SIZE=1048576 -DOFFSET=9 -DSORT=multi_quicksort_seq sorts/multi_quicksort_seq2038865828.c simpleMain.c -o multi_quicksort_seq1915563509
	sim-cache -cache:dl1 dl1:256:32:1:l -cache:dl2 dl2:131072:32:1:l -cache:il1 il1:256:32:1:l -cache:il2 dl2 multi_quicksort_seq1915563509
	sim-cache -cache:dl1 dl1:256:32:1:l -cache:dl2 dl2:65536:32:1:l -cache:il1 il1:256:32:1:l -cache:il2 dl2 multi_quicksort_seq1915563509
	sim-cache -cache:dl1 dl1:1:32:256:l -cache:dl2 dl2:1:32:131072:l -cache:il1 il1:1:32:256:l -cache:il2 dl2 multi_quicksort_seq1915563509
	sim-cache -cache:dl1 dl1:1:32:256:l -cache:dl2 dl2:1:32:65536:l -cache:il1 il1:1:32:256:l -cache:il2 dl2 multi_quicksort_seq1915563509
	sim-bpred -bpred bimod -bpred:bimod 512 multi_quicksort_seq1915563509
	sim-bpred -bpred bimod -bpred:bimod 1024 multi_quicksort_seq1915563509
	sim-bpred -bpred bimod -bpred:bimod 2048 multi_quicksort_seq1915563509
	sim-bpred -bpred 2lev -bpred:2lev 1 512 10 1 multi_quicksort_seq1915563509
	sim-bpred -bpred 2lev -bpred:2lev 1 1024 10 1 multi_quicksort_seq1915563509
	sim-bpred -bpred 2lev -bpred:2lev 1 2048 10 1 multi_quicksort_seq1915563509
	sim-bpred -bpred 2lev -bpred:2lev 1 4096 10 1 multi_quicksort_seq1915563509
	sslittle-na-sstrix-gcc -Wall -O3 -funroll-loops -finline-functions  -DRANDOM_SIZE=2097152 -DOFFSET=9 -DSORT=multi_quicksort_seq sorts/multi_quicksort_seq2038865828.c simpleMain.c -o multi_quicksort_seq1915563509
	sim-cache -cache:dl1 dl1:256:32:1:l -cache:dl2 dl2:131072:32:1:l -cache:il1 il1:256:32:1:l -cache:il2 dl2 multi_quicksort_seq1915563509
	sim-cache -cache:dl1 dl1:256:32:1:l -cache:dl2 dl2:65536:32:1:l -cache:il1 il1:256:32:1:l -cache:il2 dl2 multi_quicksort_seq1915563509
	sim-cache -cache:dl1 dl1:1:32:256:l -cache:dl2 dl2:1:32:131072:l -cache:il1 il1:1:32:256:l -cache:il2 dl2 multi_quicksort_seq1915563509
	sim-cache -cache:dl1 dl1:1:32:256:l -cache:dl2 dl2:1:32:65536:l -cache:il1 il1:1:32:256:l -cache:il2 dl2 multi_quicksort_seq1915563509
	sim-bpred -bpred bimod -bpred:bimod 512 multi_quicksort_seq1915563509
	sim-bpred -bpred bimod -bpred:bimod 1024 multi_quicksort_seq1915563509
	sim-bpred -bpred bimod -bpred:bimod 2048 multi_quicksort_seq1915563509
	sim-bpred -bpred 2lev -bpred:2lev 1 512 10 1 multi_quicksort_seq1915563509
	sim-bpred -bpred 2lev -bpred:2lev 1 1024 10 1 multi_quicksort_seq1915563509
	sim-bpred -bpred 2lev -bpred:2lev 1 2048 10 1 multi_quicksort_seq1915563509
	sim-bpred -bpred 2lev -bpred:2lev 1 4096 10 1 multi_quicksort_seq1915563509
	sslittle-na-sstrix-gcc -Wall -O3 -funroll-loops -finline-functions  -DRANDOM_SIZE=4194304 -DOFFSET=9 -DSORT=multi_quicksort_seq sorts/multi_quicksort_seq2038865828.c simpleMain.c -o multi_quicksort_seq1915563509
	sim-cache -cache:dl1 dl1:256:32:1:l -cache:dl2 dl2:131072:32:1:l -cache:il1 il1:256:32:1:l -cache:il2 dl2 multi_quicksort_seq1915563509
	sim-cache -cache:dl1 dl1:256:32:1:l -cache:dl2 dl2:65536:32:1:l -cache:il1 il1:256:32:1:l -cache:il2 dl2 multi_quicksort_seq1915563509
	sim-cache -cache:dl1 dl1:1:32:256:l -cache:dl2 dl2:1:32:131072:l -cache:il1 il1:1:32:256:l -cache:il2 dl2 multi_quicksort_seq1915563509
	sim-cache -cache:dl1 dl1:1:32:256:l -cache:dl2 dl2:1:32:65536:l -cache:il1 il1:1:32:256:l -cache:il2 dl2 multi_quicksort_seq1915563509
	sim-bpred -bpred bimod -bpred:bimod 512 multi_quicksort_seq1915563509
	sim-bpred -bpred bimod -bpred:bimod 1024 multi_quicksort_seq1915563509
	sim-bpred -bpred bimod -bpred:bimod 2048 multi_quicksort_seq1915563509
	sim-bpred -bpred 2lev -bpred:2lev 1 512 10 1 multi_quicksort_seq1915563509
	sim-bpred -bpred 2lev -bpred:2lev 1 1024 10 1 multi_quicksort_seq1915563509
	sim-bpred -bpred 2lev -bpred:2lev 1 2048 10 1 multi_quicksort_seq1915563509
	sim-bpred -bpred 2lev -bpred:2lev 1 4096 10 1 multi_quicksort_seq1915563509
