Tue Jul 26 08:01:08 2005
Run as: "./do_simple -c random.org7 -o 7 multi_quicksort_seq"
-------------------------------------------------------------------------------------------------
sim-cache                                     4096 |         4096 |         4096 |         4096 |         8192 |         8192 |         8192 |         8192 |        16384 |        16384 |        16384 |        16384 |        32768 |        32768 |        32768 |        32768 |        65536 |        65536 |        65536 |        65536 |       131072 |       131072 |       131072 |       131072 |       262144 |       262144 |       262144 |       262144 |       524288 |       524288 |       524288 |       524288 |      1048576 |      1048576 |      1048576 |      1048576 |      2097152 |      2097152 |      2097152 |      2097152 |      4194304 |      4194304 |      4194304 |      4194304 |
-cache:dl1 dl1:256:32:1:l -cache:dl2 dl2:131072:32:1:l -cache:il1 il1:256:32:1:l -cache:il2 dl2
-cache:dl1 dl1:256:32:1:l -cache:dl2 dl2:65536:32:1:l -cache:il1 il1:256:32:1:l -cache:il2 dl2
-cache:dl1 dl1:1:32:256:l -cache:dl2 dl2:1:32:131072:l -cache:il1 il1:1:32:256:l -cache:il2 dl2
-cache:dl1 dl1:1:32:256:l -cache:dl2 dl2:1:32:65536:l -cache:il1 il1:1:32:256:l -cache:il2 dl2
-------------------------------------------------------------------------------------------------
sim_num_insn                                476625 |       476625 |       476625 |       476625 |      1002743 |      1002743 |      1002743 |      1002743 |      2138715 |      2138715 |      2138715 |      2138715 |      4693383 |      4693383 |      4693383 |      4693383 |      9858553 |      9858553 |      9858553 |      9858553 |     20589961 |     20589961 |     20589961 |     20589961 |     43778497 |     43778497 |     43778497 |     43778497 |     93161539 |     93161539 |     93161539 |     93161539 |    194442624 |    194442624 |    194442624 |    194442624 |    561658856 |    561658856 |    561658856 |    561658856 |   1314016167 |   1314016167 |   1314016167 |   1314016167 |
sim_num_refs                                124622 |       124622 |       124622 |       124622 |       260008 |       260008 |       260008 |       260008 |       550929 |       550929 |       550929 |       550929 |      1180230 |      1180230 |      1180230 |      1180230 |      2481493 |      2481493 |      2481493 |      2481493 |      5190595 |      5190595 |      5190595 |      5190595 |     10966145 |     10966145 |     10966145 |     10966145 |     23144348 |     23144348 |     23144348 |     23144348 |     48328914 |     48328914 |     48328914 |     48328914 |    132050871 |    132050871 |    132050871 |    132050871 |    292244459 |    292244459 |    292244459 |    292244459 |
sim_elapsed_time                                 1 |            1 |            8 |            3 |            1 |            1 |           10 |            5 |            1 |            1 |           15 |            8 |            1 |            1 |           27 |           13 |            3 |            2 |           48 |           24 |            6 |            5 |           89 |           45 |           12 |           12 |          163 |           76 |           25 |           25 |          282 |          110 |           52 |           51 |          393 |          139 |          150 |          150 |          497 |          244 |          344 |          345 |          707 |          453 |
sim_inst_rate                          476625.0000 |  476625.0000 |   59578.1250 |  158875.0000 | 1002743.0000 | 1002743.0000 |  100274.3000 |  200548.6000 | 2138715.0000 | 2138715.0000 |  142581.0000 |  267339.3750 | 4693383.0000 | 4693383.0000 |  173829.0000 |  361029.4615 | 3286184.3333 | 4929276.5000 |  205386.5208 |  410773.0417 | 3431660.1667 | 4117992.2000 |  231347.8764 |  457554.6889 | 3648208.0833 | 3648208.0833 |  268579.7362 |  576032.8553 | 3726461.5600 | 3726461.5600 |  330360.0674 |  846923.0818 | 3739281.2308 | 3812600.4706 |  494764.9466 | 1398867.7986 | 3744392.3733 | 3744392.3733 | 1130098.3018 | 2301880.5574 | 3819814.4390 | 3808742.5130 | 1858580.1513 | 2900697.9404 |
il1.accesses                                476625 |       476625 |       476625 |       476625 |      1002743 |      1002743 |      1002743 |      1002743 |      2138715 |      2138715 |      2138715 |      2138715 |      4693383 |      4693383 |      4693383 |      4693383 |      9858553 |      9858553 |      9858553 |      9858553 |     20589961 |     20589961 |     20589961 |     20589961 |     43778497 |     43778497 |     43778497 |     43778497 |     93161539 |     93161539 |     93161539 |     93161539 |    194442624 |    194442624 |    194442624 |    194442624 |    561658856 |    561658856 |    561658856 |    561658856 |   1314016167 |   1314016167 |   1314016167 |   1314016167 |
il1.hits                                    476161 |       476161 |       476192 |       476192 |      1002285 |      1002285 |      1002316 |      1002316 |      2138233 |      2138233 |      2138272 |      2138272 |      4692914 |      4692914 |      4692943 |      4692943 |      9858088 |      9858088 |      9858117 |      9858117 |     20589499 |     20589499 |     20589528 |     20589528 |     43778029 |     43778029 |     43778058 |     43778058 |     93161071 |     93161071 |     93161100 |     93161100 |    194442162 |    194442162 |    194442191 |    194442191 |    561658121 |    561658121 |    561658166 |    561658166 |   1314015432 |   1314015432 |   1314015477 |   1314015477 |
il1.misses                                     464 |          464 |          433 |          433 |          458 |          458 |          427 |          427 |          482 |          482 |          443 |          443 |          469 |          469 |          440 |          440 |          465 |          465 |          436 |          436 |          462 |          462 |          433 |          433 |          468 |          468 |          439 |          439 |          468 |          468 |          439 |          439 |          462 |          462 |          433 |          433 |          735 |          735 |          690 |          690 |          735 |          735 |          690 |          690 |
il1.replacements                               221 |          221 |          177 |          177 |          215 |          215 |          171 |          171 |          240 |          240 |          187 |          187 |          224 |          224 |          184 |          184 |          220 |          220 |          180 |          180 |          217 |          217 |          177 |          177 |          223 |          223 |          183 |          183 |          223 |          223 |          183 |          183 |          217 |          217 |          177 |          177 |          480 |          480 |          434 |          434 |          480 |          480 |          434 |          434 |
il1.writebacks                                   0 |            0 |            0 |            0 |            0 |            0 |            0 |            0 |            0 |            0 |            0 |            0 |            0 |            0 |            0 |            0 |            0 |            0 |            0 |            0 |            0 |            0 |            0 |            0 |            0 |            0 |            0 |            0 |            0 |            0 |            0 |            0 |            0 |            0 |            0 |            0 |            0 |            0 |            0 |            0 |            0 |            0 |            0 |            0 |
il1.invalidations                                0 |            0 |            0 |            0 |            0 |            0 |            0 |            0 |            0 |            0 |            0 |            0 |            0 |            0 |            0 |            0 |            0 |            0 |            0 |            0 |            0 |            0 |            0 |            0 |            0 |            0 |            0 |            0 |            0 |            0 |            0 |            0 |            0 |            0 |            0 |            0 |            0 |            0 |            0 |            0 |            0 |            0 |            0 |            0 |
il1.miss_rate                               0.0010 |       0.0010 |       0.0009 |       0.0009 |       0.0005 |       0.0005 |       0.0004 |       0.0004 |       0.0002 |       0.0002 |       0.0002 |       0.0002 |       0.0001 |       0.0001 |       0.0001 |       0.0001 |       0.0000 |       0.0000 |       0.0000 |       0.0000 |       0.0000 |       0.0000 |       0.0000 |       0.0000 |       0.0000 |       0.0000 |       0.0000 |       0.0000 |       0.0000 |       0.0000 |       0.0000 |       0.0000 |       0.0000 |       0.0000 |       0.0000 |       0.0000 |       0.0000 |       0.0000 |       0.0000 |       0.0000 |       0.0000 |       0.0000 |       0.0000 |       0.0000 |
il1.repl_rate                               0.0005 |       0.0005 |       0.0004 |       0.0004 |       0.0002 |       0.0002 |       0.0002 |       0.0002 |       0.0001 |       0.0001 |       0.0001 |       0.0001 |       0.0000 |       0.0000 |       0.0000 |       0.0000 |       0.0000 |       0.0000 |       0.0000 |       0.0000 |       0.0000 |       0.0000 |       0.0000 |       0.0000 |       0.0000 |       0.0000 |       0.0000 |       0.0000 |       0.0000 |       0.0000 |       0.0000 |       0.0000 |       0.0000 |       0.0000 |       0.0000 |       0.0000 |       0.0000 |       0.0000 |       0.0000 |       0.0000 |       0.0000 |       0.0000 |       0.0000 |       0.0000 |
il1.wb_rate                                 0.0000 |       0.0000 |       0.0000 |       0.0000 |       0.0000 |       0.0000 |       0.0000 |       0.0000 |       0.0000 |       0.0000 |       0.0000 |       0.0000 |       0.0000 |       0.0000 |       0.0000 |       0.0000 |       0.0000 |       0.0000 |       0.0000 |       0.0000 |       0.0000 |       0.0000 |       0.0000 |       0.0000 |       0.0000 |       0.0000 |       0.0000 |       0.0000 |       0.0000 |       0.0000 |       0.0000 |       0.0000 |       0.0000 |       0.0000 |       0.0000 |       0.0000 |       0.0000 |       0.0000 |       0.0000 |       0.0000 |       0.0000 |       0.0000 |       0.0000 |       0.0000 |
il1.inv_rate                                0.0000 |       0.0000 |       0.0000 |       0.0000 |       0.0000 |       0.0000 |       0.0000 |       0.0000 |       0.0000 |       0.0000 |       0.0000 |       0.0000 |       0.0000 |       0.0000 |       0.0000 |       0.0000 |       0.0000 |       0.0000 |       0.0000 |       0.0000 |       0.0000 |       0.0000 |       0.0000 |       0.0000 |       0.0000 |       0.0000 |       0.0000 |       0.0000 |       0.0000 |       0.0000 |       0.0000 |       0.0000 |       0.0000 |       0.0000 |       0.0000 |       0.0000 |       0.0000 |       0.0000 |       0.0000 |       0.0000 |       0.0000 |       0.0000 |       0.0000 |       0.0000 |
dl1.accesses                                141088 |       141088 |       141088 |       141088 |       292858 |       292858 |       292858 |       292858 |       616547 |       616547 |       616547 |       616547 |      1311384 |      1311384 |      1311384 |      1311384 |      2743719 |      2743719 |      2743719 |      2743719 |      5714965 |      5714965 |      5714965 |      5714965 |     12014803 |     12014803 |     12014803 |     12014803 |     25241582 |     25241582 |     25241582 |     25241582 |     52523300 |     52523300 |     52523300 |     52523300 |    140439562 |    140439562 |    140439562 |    140439562 |    309021758 |    309021758 |    309021758 |    309021758 |
dl1.hits                                    138795 |       138795 |       138597 |       138597 |       287440 |       287440 |       287514 |       287514 |       604522 |       604522 |       604346 |       604346 |      1280413 |      1280413 |      1280460 |      1280460 |      2674941 |      2674941 |      2675406 |      2675406 |      5566711 |      5566711 |      5567143 |      5567143 |     11675102 |     11675102 |     11678470 |     11678470 |     24463267 |     24463267 |     24471357 |     24471357 |     50845244 |     50845244 |     50864110 |     50864110 |    133056854 |    133056854 |    136746160 |    136746160 |    297001203 |    297001203 |    301414014 |    301414014 |
dl1.misses                                    2293 |         2293 |         2491 |         2491 |         5418 |         5418 |         5344 |         5344 |        12025 |        12025 |        12201 |        12201 |        30971 |        30971 |        30924 |        30924 |        68778 |        68778 |        68313 |        68313 |       148254 |       148254 |       147822 |       147822 |       339701 |       339701 |       336333 |       336333 |       778315 |       778315 |       770225 |       770225 |      1678056 |      1678056 |      1659190 |      1659190 |      7382708 |      7382708 |      3693402 |      3693402 |     12020555 |     12020555 |      7607744 |      7607744 |
dl1.replacements                              2037 |         2037 |         2235 |         2235 |         5162 |         5162 |         5088 |         5088 |        11769 |        11769 |        11945 |        11945 |        30715 |        30715 |        30668 |        30668 |        68522 |        68522 |        68057 |        68057 |       147998 |       147998 |       147566 |       147566 |       339445 |       339445 |       336077 |       336077 |       778059 |       778059 |       769969 |       769969 |      1677800 |      1677800 |      1658934 |      1658934 |      7382452 |      7382452 |      3693146 |      3693146 |     12020299 |     12020299 |      7607488 |      7607488 |
dl1.writebacks                                1926 |         1926 |         2059 |         2059 |         4846 |         4846 |         4828 |         4828 |        11123 |        11123 |        11345 |        11345 |        27479 |        27479 |        27561 |        27561 |        62717 |        62717 |        62875 |        62875 |       139532 |       139532 |       140423 |       140423 |       315676 |       315676 |       315672 |       315672 |       712515 |       712515 |       712025 |       712025 |      1552135 |      1552135 |      1550663 |      1550663 |      5113105 |      5113105 |      2972418 |      2972418 |     10024694 |     10024694 |      6104249 |      6104249 |
dl1.invalidations                                0 |            0 |            0 |            0 |            0 |            0 |            0 |            0 |            0 |            0 |            0 |            0 |            0 |            0 |            0 |            0 |            0 |            0 |            0 |            0 |            0 |            0 |            0 |            0 |            0 |            0 |            0 |            0 |            0 |            0 |            0 |            0 |            0 |            0 |            0 |            0 |            0 |            0 |            0 |            0 |            0 |            0 |            0 |            0 |
dl1.miss_rate                               0.0163 |       0.0163 |       0.0177 |       0.0177 |       0.0185 |       0.0185 |       0.0182 |       0.0182 |       0.0195 |       0.0195 |       0.0198 |       0.0198 |       0.0236 |       0.0236 |       0.0236 |       0.0236 |       0.0251 |       0.0251 |       0.0249 |       0.0249 |       0.0259 |       0.0259 |       0.0259 |       0.0259 |       0.0283 |       0.0283 |       0.0280 |       0.0280 |       0.0308 |       0.0308 |       0.0305 |       0.0305 |       0.0319 |       0.0319 |       0.0316 |       0.0316 |       0.0526 |       0.0526 |       0.0263 |       0.0263 |       0.0389 |       0.0389 |       0.0246 |       0.0246 |
dl1.repl_rate                               0.0144 |       0.0144 |       0.0158 |       0.0158 |       0.0176 |       0.0176 |       0.0174 |       0.0174 |       0.0191 |       0.0191 |       0.0194 |       0.0194 |       0.0234 |       0.0234 |       0.0234 |       0.0234 |       0.0250 |       0.0250 |       0.0248 |       0.0248 |       0.0259 |       0.0259 |       0.0258 |       0.0258 |       0.0283 |       0.0283 |       0.0280 |       0.0280 |       0.0308 |       0.0308 |       0.0305 |       0.0305 |       0.0319 |       0.0319 |       0.0316 |       0.0316 |       0.0526 |       0.0526 |       0.0263 |       0.0263 |       0.0389 |       0.0389 |       0.0246 |       0.0246 |
dl1.wb_rate                                 0.0137 |       0.0137 |       0.0146 |       0.0146 |       0.0165 |       0.0165 |       0.0165 |       0.0165 |       0.0180 |       0.0180 |       0.0184 |       0.0184 |       0.0210 |       0.0210 |       0.0210 |       0.0210 |       0.0229 |       0.0229 |       0.0229 |       0.0229 |       0.0244 |       0.0244 |       0.0246 |       0.0246 |       0.0263 |       0.0263 |       0.0263 |       0.0263 |       0.0282 |       0.0282 |       0.0282 |       0.0282 |       0.0296 |       0.0296 |       0.0295 |       0.0295 |       0.0364 |       0.0364 |       0.0212 |       0.0212 |       0.0324 |       0.0324 |       0.0198 |       0.0198 |
dl1.inv_rate                                0.0000 |       0.0000 |       0.0000 |       0.0000 |       0.0000 |       0.0000 |       0.0000 |       0.0000 |       0.0000 |       0.0000 |       0.0000 |       0.0000 |       0.0000 |       0.0000 |       0.0000 |       0.0000 |       0.0000 |       0.0000 |       0.0000 |       0.0000 |       0.0000 |       0.0000 |       0.0000 |       0.0000 |       0.0000 |       0.0000 |       0.0000 |       0.0000 |       0.0000 |       0.0000 |       0.0000 |       0.0000 |       0.0000 |       0.0000 |       0.0000 |       0.0000 |       0.0000 |       0.0000 |       0.0000 |       0.0000 |       0.0000 |       0.0000 |       0.0000 |       0.0000 |
dl2.accesses                                  4683 |         4683 |         4983 |         4983 |        10722 |        10722 |        10599 |        10599 |        23630 |        23630 |        23989 |        23989 |        58919 |        58919 |        58925 |        58925 |       131960 |       131960 |       131624 |       131624 |       288248 |       288248 |       288678 |       288678 |       655845 |       655845 |       652444 |       652444 |      1491298 |      1491298 |      1482689 |      1482689 |      3230653 |      3230653 |      3210286 |      3210286 |     12496548 |     12496548 |      6666510 |      6666510 |     22045984 |     22045984 |     13712683 |     13712683 |
dl2.hits                                      3261 |         3261 |         3597 |         3597 |         8794 |         8794 |         8707 |         8707 |        20674 |        20674 |        21075 |        21075 |        53921 |        53921 |        53964 |        53964 |       122869 |       122869 |       122570 |       122570 |       270967 |       270967 |       271435 |       271435 |       622174 |       622174 |       618811 |       618811 |      1424859 |      1424223 |      1416288 |      1327617 |      3098048 |      2839899 |      2934914 |      2801554 |     11144947 |     11111955 |      5364385 |      5305957 |     19334857 |     19243753 |     11057918 |     10863623 |
dl2.misses                                    1422 |         1422 |         1386 |         1386 |         1928 |         1928 |         1892 |         1892 |         2956 |         2956 |         2914 |         2914 |         4998 |         4998 |         4961 |         4961 |         9091 |         9091 |         9054 |         9054 |        17281 |        17281 |        17243 |        17243 |        33671 |        33671 |        33633 |        33633 |        66439 |        67075 |        66401 |       155072 |       132605 |       390754 |       275372 |       408732 |      1351601 |      1384593 |      1302125 |      1360553 |      2711127 |      2802231 |      2654765 |      2849060 |
dl2.replacements                               282 |          282 |            0 |            0 |          283 |          283 |            0 |            0 |          294 |          294 |            0 |            0 |          290 |          290 |            0 |            0 |          286 |          286 |            0 |            0 |          284 |          284 |            0 |            0 |          290 |          290 |            0 |            0 |          290 |         1539 |            0 |        89536 |         1533 |       325218 |       144300 |       343196 |      1220529 |      1319057 |      1171053 |      1295017 |      2580055 |      2736695 |      2523693 |      2783524 |
dl2.writebacks                                 154 |          154 |            0 |            0 |          152 |          152 |            0 |            0 |          154 |          154 |            0 |            0 |          152 |          152 |            0 |            0 |          152 |          152 |            0 |            0 |          152 |          152 |            0 |            0 |          152 |          152 |            0 |            0 |          152 |         1266 |            0 |        84599 |         1262 |       317063 |       139657 |       335042 |       735268 |       799597 |       724209 |       803632 |      1565949 |      1688107 |      1547717 |      1744051 |
dl2.invalidations                                0 |            0 |            0 |            0 |            0 |            0 |            0 |            0 |            0 |            0 |            0 |            0 |            0 |            0 |            0 |            0 |            0 |            0 |            0 |            0 |            0 |            0 |            0 |            0 |            0 |            0 |            0 |            0 |            0 |            0 |            0 |            0 |            0 |            0 |            0 |            0 |            0 |            0 |            0 |            0 |            0 |            0 |            0 |            0 |
dl2.miss_rate                               0.3037 |       0.3037 |       0.2781 |       0.2781 |       0.1798 |       0.1798 |       0.1785 |       0.1785 |       0.1251 |       0.1251 |       0.1215 |       0.1215 |       0.0848 |       0.0848 |       0.0842 |       0.0842 |       0.0689 |       0.0689 |       0.0688 |       0.0688 |       0.0600 |       0.0600 |       0.0597 |       0.0597 |       0.0513 |       0.0513 |       0.0515 |       0.0515 |       0.0446 |       0.0450 |       0.0448 |       0.1046 |       0.0410 |       0.1210 |       0.0858 |       0.1273 |       0.1082 |       0.1108 |       0.1953 |       0.2041 |       0.1230 |       0.1271 |       0.1936 |       0.2078 |
dl2.repl_rate                               0.0602 |       0.0602 |       0.0000 |       0.0000 |       0.0264 |       0.0264 |       0.0000 |       0.0000 |       0.0124 |       0.0124 |       0.0000 |       0.0000 |       0.0049 |       0.0049 |       0.0000 |       0.0000 |       0.0022 |       0.0022 |       0.0000 |       0.0000 |       0.0010 |       0.0010 |       0.0000 |       0.0000 |       0.0004 |       0.0004 |       0.0000 |       0.0000 |       0.0002 |       0.0010 |       0.0000 |       0.0604 |       0.0005 |       0.1007 |       0.0449 |       0.1069 |       0.0977 |       0.1056 |       0.1757 |       0.1943 |       0.1170 |       0.1241 |       0.1840 |       0.2030 |
dl2.wb_rate                                 0.0329 |       0.0329 |       0.0000 |       0.0000 |       0.0142 |       0.0142 |       0.0000 |       0.0000 |       0.0065 |       0.0065 |       0.0000 |       0.0000 |       0.0026 |       0.0026 |       0.0000 |       0.0000 |       0.0012 |       0.0012 |       0.0000 |       0.0000 |       0.0005 |       0.0005 |       0.0000 |       0.0000 |       0.0002 |       0.0002 |       0.0000 |       0.0000 |       0.0001 |       0.0008 |       0.0000 |       0.0571 |       0.0004 |       0.0981 |       0.0435 |       0.1044 |       0.0588 |       0.0640 |       0.1086 |       0.1205 |       0.0710 |       0.0766 |       0.1129 |       0.1272 |
dl2.inv_rate                                0.0000 |       0.0000 |       0.0000 |       0.0000 |       0.0000 |       0.0000 |       0.0000 |       0.0000 |       0.0000 |       0.0000 |       0.0000 |       0.0000 |       0.0000 |       0.0000 |       0.0000 |       0.0000 |       0.0000 |       0.0000 |       0.0000 |       0.0000 |       0.0000 |       0.0000 |       0.0000 |       0.0000 |       0.0000 |       0.0000 |       0.0000 |       0.0000 |       0.0000 |       0.0000 |       0.0000 |       0.0000 |       0.0000 |       0.0000 |       0.0000 |       0.0000 |       0.0000 |       0.0000 |       0.0000 |       0.0000 |       0.0000 |       0.0000 |       0.0000 |       0.0000 |
itlb.accesses                               476625 |       476625 |       476625 |       476625 |      1002743 |      1002743 |      1002743 |      1002743 |      2138715 |      2138715 |      2138715 |      2138715 |      4693383 |      4693383 |      4693383 |      4693383 |      9858553 |      9858553 |      9858553 |      9858553 |     20589961 |     20589961 |     20589961 |     20589961 |     43778497 |     43778497 |     43778497 |     43778497 |     93161539 |     93161539 |     93161539 |     93161539 |    194442624 |    194442624 |    194442624 |    194442624 |    561658856 |    561658856 |    561658856 |    561658856 |   1314016167 |   1314016167 |   1314016167 |   1314016167 |
itlb.hits                                   476614 |       476614 |       476614 |       476614 |      1002732 |      1002732 |      1002732 |      1002732 |      2138704 |      2138704 |      2138704 |      2138704 |      4693372 |      4693372 |      4693372 |      4693372 |      9858542 |      9858542 |      9858542 |      9858542 |     20589950 |     20589950 |     20589950 |     20589950 |     43778486 |     43778486 |     43778486 |     43778486 |     93161528 |     93161528 |     93161528 |     93161528 |    194442613 |    194442613 |    194442613 |    194442613 |    561658845 |    561658845 |    561658845 |    561658845 |   1314016156 |   1314016156 |   1314016156 |   1314016156 |
itlb.misses                                     11 |           11 |           11 |           11 |           11 |           11 |           11 |           11 |           11 |           11 |           11 |           11 |           11 |           11 |           11 |           11 |           11 |           11 |           11 |           11 |           11 |           11 |           11 |           11 |           11 |           11 |           11 |           11 |           11 |           11 |           11 |           11 |           11 |           11 |           11 |           11 |           11 |           11 |           11 |           11 |           11 |           11 |           11 |           11 |
itlb.replacements                                0 |            0 |            0 |            0 |            0 |            0 |            0 |            0 |            0 |            0 |            0 |            0 |            0 |            0 |            0 |            0 |            0 |            0 |            0 |            0 |            0 |            0 |            0 |            0 |            0 |            0 |            0 |            0 |            0 |            0 |            0 |            0 |            0 |            0 |            0 |            0 |            0 |            0 |            0 |            0 |            0 |            0 |            0 |            0 |
itlb.writebacks                                  0 |            0 |            0 |            0 |            0 |            0 |            0 |            0 |            0 |            0 |            0 |            0 |            0 |            0 |            0 |            0 |            0 |            0 |            0 |            0 |            0 |            0 |            0 |            0 |            0 |            0 |            0 |            0 |            0 |            0 |            0 |            0 |            0 |            0 |            0 |            0 |            0 |            0 |            0 |            0 |            0 |            0 |            0 |            0 |
itlb.invalidations                               0 |            0 |            0 |            0 |            0 |            0 |            0 |            0 |            0 |            0 |            0 |            0 |            0 |            0 |            0 |            0 |            0 |            0 |            0 |            0 |            0 |            0 |            0 |            0 |            0 |            0 |            0 |            0 |            0 |            0 |            0 |            0 |            0 |            0 |            0 |            0 |            0 |            0 |            0 |            0 |            0 |            0 |            0 |            0 |
itlb.miss_rate                              0.0000 |       0.0000 |       0.0000 |       0.0000 |       0.0000 |       0.0000 |       0.0000 |       0.0000 |       0.0000 |       0.0000 |       0.0000 |       0.0000 |       0.0000 |       0.0000 |       0.0000 |       0.0000 |       0.0000 |       0.0000 |       0.0000 |       0.0000 |       0.0000 |       0.0000 |       0.0000 |       0.0000 |       0.0000 |       0.0000 |       0.0000 |       0.0000 |       0.0000 |       0.0000 |       0.0000 |       0.0000 |       0.0000 |       0.0000 |       0.0000 |       0.0000 |       0.0000 |       0.0000 |       0.0000 |       0.0000 |       0.0000 |       0.0000 |       0.0000 |       0.0000 |
itlb.repl_rate                              0.0000 |       0.0000 |       0.0000 |       0.0000 |       0.0000 |       0.0000 |       0.0000 |       0.0000 |       0.0000 |       0.0000 |       0.0000 |       0.0000 |       0.0000 |       0.0000 |       0.0000 |       0.0000 |       0.0000 |       0.0000 |       0.0000 |       0.0000 |       0.0000 |       0.0000 |       0.0000 |       0.0000 |       0.0000 |       0.0000 |       0.0000 |       0.0000 |       0.0000 |       0.0000 |       0.0000 |       0.0000 |       0.0000 |       0.0000 |       0.0000 |       0.0000 |       0.0000 |       0.0000 |       0.0000 |       0.0000 |       0.0000 |       0.0000 |       0.0000 |       0.0000 |
itlb.wb_rate                                0.0000 |       0.0000 |       0.0000 |       0.0000 |       0.0000 |       0.0000 |       0.0000 |       0.0000 |       0.0000 |       0.0000 |       0.0000 |       0.0000 |       0.0000 |       0.0000 |       0.0000 |       0.0000 |       0.0000 |       0.0000 |       0.0000 |       0.0000 |       0.0000 |       0.0000 |       0.0000 |       0.0000 |       0.0000 |       0.0000 |       0.0000 |       0.0000 |       0.0000 |       0.0000 |       0.0000 |       0.0000 |       0.0000 |       0.0000 |       0.0000 |       0.0000 |       0.0000 |       0.0000 |       0.0000 |       0.0000 |       0.0000 |       0.0000 |       0.0000 |       0.0000 |
itlb.inv_rate                               0.0000 |       0.0000 |       0.0000 |       0.0000 |       0.0000 |       0.0000 |       0.0000 |       0.0000 |       0.0000 |       0.0000 |       0.0000 |       0.0000 |       0.0000 |       0.0000 |       0.0000 |       0.0000 |       0.0000 |       0.0000 |       0.0000 |       0.0000 |       0.0000 |       0.0000 |       0.0000 |       0.0000 |       0.0000 |       0.0000 |       0.0000 |       0.0000 |       0.0000 |       0.0000 |       0.0000 |       0.0000 |       0.0000 |       0.0000 |       0.0000 |       0.0000 |       0.0000 |       0.0000 |       0.0000 |       0.0000 |       0.0000 |       0.0000 |       0.0000 |       0.0000 |
dtlb.accesses                               141088 |       141088 |       141088 |       141088 |       292858 |       292858 |       292858 |       292858 |       616547 |       616547 |       616547 |       616547 |      1311384 |      1311384 |      1311384 |      1311384 |      2743719 |      2743719 |      2743719 |      2743719 |      5714965 |      5714965 |      5714965 |      5714965 |     12014803 |     12014803 |     12014803 |     12014803 |     25241582 |     25241582 |     25241582 |     25241582 |     52523300 |     52523300 |     52523300 |     52523300 |    140439562 |    140439562 |    140439562 |    140439562 |    309021758 |    309021758 |    309021758 |    309021758 |
dtlb.hits                                   141076 |       141076 |       141076 |       141076 |       292842 |       292842 |       292842 |       292842 |       616523 |       616523 |       616523 |       616523 |      1311344 |      1311344 |      1311344 |      1311344 |      2743647 |      2743647 |      2743647 |      2743647 |      5714804 |      5714804 |      5714804 |      5714804 |     12013964 |     12013964 |     12013964 |     12013964 |     25239155 |     25239155 |     25239155 |     25239155 |     52517825 |     52517825 |     52517825 |     52517825 |    140425416 |    140425416 |    140425416 |    140425416 |    308992110 |    308992110 |    308992110 |    308992110 |
dtlb.misses                                     12 |           12 |           12 |           12 |           16 |           16 |           16 |           16 |           24 |           24 |           24 |           24 |           40 |           40 |           40 |           40 |           72 |           72 |           72 |           72 |          161 |          161 |          161 |          161 |          839 |          839 |          839 |          839 |         2427 |         2427 |         2427 |         2427 |         5475 |         5475 |         5475 |         5475 |        14146 |        14146 |        14146 |        14146 |        29648 |        29648 |        29648 |        29648 |
dtlb.replacements                                0 |            0 |            0 |            0 |            0 |            0 |            0 |            0 |            0 |            0 |            0 |            0 |            0 |            0 |            0 |            0 |            0 |            0 |            0 |            0 |           33 |           33 |           33 |           33 |          711 |          711 |          711 |          711 |         2299 |         2299 |         2299 |         2299 |         5347 |         5347 |         5347 |         5347 |        14018 |        14018 |        14018 |        14018 |        29520 |        29520 |        29520 |        29520 |
dtlb.writebacks                                  0 |            0 |            0 |            0 |            0 |            0 |            0 |            0 |            0 |            0 |            0 |            0 |            0 |            0 |            0 |            0 |            0 |            0 |            0 |            0 |           31 |           31 |           31 |           31 |          709 |          709 |          709 |          709 |         2297 |         2297 |         2297 |         2297 |         5345 |         5345 |         5345 |         5345 |        11954 |        11954 |        11954 |        11954 |        25396 |        25396 |        25396 |        25396 |
dtlb.invalidations                               0 |            0 |            0 |            0 |            0 |            0 |            0 |            0 |            0 |            0 |            0 |            0 |            0 |            0 |            0 |            0 |            0 |            0 |            0 |            0 |            0 |            0 |            0 |            0 |            0 |            0 |            0 |            0 |            0 |            0 |            0 |            0 |            0 |            0 |            0 |            0 |            0 |            0 |            0 |            0 |            0 |            0 |            0 |            0 |
dtlb.miss_rate                              0.0001 |       0.0001 |       0.0001 |       0.0001 |       0.0001 |       0.0001 |       0.0001 |       0.0001 |       0.0000 |       0.0000 |       0.0000 |       0.0000 |       0.0000 |       0.0000 |       0.0000 |       0.0000 |       0.0000 |       0.0000 |       0.0000 |       0.0000 |       0.0000 |       0.0000 |       0.0000 |       0.0000 |       0.0001 |       0.0001 |       0.0001 |       0.0001 |       0.0001 |       0.0001 |       0.0001 |       0.0001 |       0.0001 |       0.0001 |       0.0001 |       0.0001 |       0.0001 |       0.0001 |       0.0001 |       0.0001 |       0.0001 |       0.0001 |       0.0001 |       0.0001 |
dtlb.repl_rate                              0.0000 |       0.0000 |       0.0000 |       0.0000 |       0.0000 |       0.0000 |       0.0000 |       0.0000 |       0.0000 |       0.0000 |       0.0000 |       0.0000 |       0.0000 |       0.0000 |       0.0000 |       0.0000 |       0.0000 |       0.0000 |       0.0000 |       0.0000 |       0.0000 |       0.0000 |       0.0000 |       0.0000 |       0.0001 |       0.0001 |       0.0001 |       0.0001 |       0.0001 |       0.0001 |       0.0001 |       0.0001 |       0.0001 |       0.0001 |       0.0001 |       0.0001 |       0.0001 |       0.0001 |       0.0001 |       0.0001 |       0.0001 |       0.0001 |       0.0001 |       0.0001 |
dtlb.wb_rate                                0.0000 |       0.0000 |       0.0000 |       0.0000 |       0.0000 |       0.0000 |       0.0000 |       0.0000 |       0.0000 |       0.0000 |       0.0000 |       0.0000 |       0.0000 |       0.0000 |       0.0000 |       0.0000 |       0.0000 |       0.0000 |       0.0000 |       0.0000 |       0.0000 |       0.0000 |       0.0000 |       0.0000 |       0.0001 |       0.0001 |       0.0001 |       0.0001 |       0.0001 |       0.0001 |       0.0001 |       0.0001 |       0.0001 |       0.0001 |       0.0001 |       0.0001 |       0.0001 |       0.0001 |       0.0001 |       0.0001 |       0.0001 |       0.0001 |       0.0001 |       0.0001 |
dtlb.inv_rate                               0.0000 |       0.0000 |       0.0000 |       0.0000 |       0.0000 |       0.0000 |       0.0000 |       0.0000 |       0.0000 |       0.0000 |       0.0000 |       0.0000 |       0.0000 |       0.0000 |       0.0000 |       0.0000 |       0.0000 |       0.0000 |       0.0000 |       0.0000 |       0.0000 |       0.0000 |       0.0000 |       0.0000 |       0.0000 |       0.0000 |       0.0000 |       0.0000 |       0.0000 |       0.0000 |       0.0000 |       0.0000 |       0.0000 |       0.0000 |       0.0000 |       0.0000 |       0.0000 |       0.0000 |       0.0000 |       0.0000 |       0.0000 |       0.0000 |       0.0000 |       0.0000 |
ld_text_base                            0x00400000 |   0x00400000 |   0x00400000 |   0x00400000 |   0x00400000 |   0x00400000 |   0x00400000 |   0x00400000 |   0x00400000 |   0x00400000 |   0x00400000 |   0x00400000 |   0x00400000 |   0x00400000 |   0x00400000 |   0x00400000 |   0x00400000 |   0x00400000 |   0x00400000 |   0x00400000 |   0x00400000 |   0x00400000 |   0x00400000 |   0x00400000 |   0x00400000 |   0x00400000 |   0x00400000 |   0x00400000 |   0x00400000 |   0x00400000 |   0x00400000 |   0x00400000 |   0x00400000 |   0x00400000 |   0x00400000 |   0x00400000 |   0x00400000 |   0x00400000 |   0x00400000 |   0x00400000 |   0x00400000 |   0x00400000 |   0x00400000 |   0x00400000 |
ld_text_size                                 78480 |        78480 |        78480 |        78480 |        78512 |        78512 |        78512 |        78512 |        78528 |        78528 |        78528 |        78528 |        78544 |        78544 |        78544 |        78544 |        78544 |        78544 |        78544 |        78544 |        78544 |        78544 |        78544 |        78544 |        78544 |        78544 |        78544 |        78544 |        78544 |        78544 |        78544 |        78544 |        78544 |        78544 |        78544 |        78544 |        78544 |        78544 |        78544 |        78544 |        78544 |        78544 |        78544 |        78544 |
ld_data_base                            0x10000000 |   0x10000000 |   0x10000000 |   0x10000000 |   0x10000000 |   0x10000000 |   0x10000000 |   0x10000000 |   0x10000000 |   0x10000000 |   0x10000000 |   0x10000000 |   0x10000000 |   0x10000000 |   0x10000000 |   0x10000000 |   0x10000000 |   0x10000000 |   0x10000000 |   0x10000000 |   0x10000000 |   0x10000000 |   0x10000000 |   0x10000000 |   0x10000000 |   0x10000000 |   0x10000000 |   0x10000000 |   0x10000000 |   0x10000000 |   0x10000000 |   0x10000000 |   0x10000000 |   0x10000000 |   0x10000000 |   0x10000000 |   0x10000000 |   0x10000000 |   0x10000000 |   0x10000000 |   0x10000000 |   0x10000000 |   0x10000000 |   0x10000000 |
ld_data_size                                  8192 |         8192 |         8192 |         8192 |         8192 |         8192 |         8192 |         8192 |         8192 |         8192 |         8192 |         8192 |         8192 |         8192 |         8192 |         8192 |         8192 |         8192 |         8192 |         8192 |         8192 |         8192 |         8192 |         8192 |         8192 |         8192 |         8192 |         8192 |         8192 |         8192 |         8192 |         8192 |         8192 |         8192 |         8192 |         8192 |         8192 |         8192 |         8192 |         8192 |         8192 |         8192 |         8192 |         8192 |
ld_stack_base                           0x7fffc000 |   0x7fffc000 |   0x7fffc000 |   0x7fffc000 |   0x7fffc000 |   0x7fffc000 |   0x7fffc000 |   0x7fffc000 |   0x7fffc000 |   0x7fffc000 |   0x7fffc000 |   0x7fffc000 |   0x7fffc000 |   0x7fffc000 |   0x7fffc000 |   0x7fffc000 |   0x7fffc000 |   0x7fffc000 |   0x7fffc000 |   0x7fffc000 |   0x7fffc000 |   0x7fffc000 |   0x7fffc000 |   0x7fffc000 |   0x7fffc000 |   0x7fffc000 |   0x7fffc000 |   0x7fffc000 |   0x7fffc000 |   0x7fffc000 |   0x7fffc000 |   0x7fffc000 |   0x7fffc000 |   0x7fffc000 |   0x7fffc000 |   0x7fffc000 |   0x7fffc000 |   0x7fffc000 |   0x7fffc000 |   0x7fffc000 |   0x7fffc000 |   0x7fffc000 |   0x7fffc000 |   0x7fffc000 |
ld_stack_size                                16384 |        16384 |        16384 |        16384 |        16384 |        16384 |        16384 |        16384 |        16384 |        16384 |        16384 |        16384 |        16384 |        16384 |        16384 |        16384 |        16384 |        16384 |        16384 |        16384 |        16384 |        16384 |        16384 |        16384 |        16384 |        16384 |        16384 |        16384 |        16384 |        16384 |        16384 |        16384 |        16384 |        16384 |        16384 |        16384 |        16384 |        16384 |        16384 |        16384 |        16384 |        16384 |        16384 |        16384 |
ld_prog_entry                           0x00400140 |   0x00400140 |   0x00400140 |   0x00400140 |   0x00400140 |   0x00400140 |   0x00400140 |   0x00400140 |   0x00400140 |   0x00400140 |   0x00400140 |   0x00400140 |   0x00400140 |   0x00400140 |   0x00400140 |   0x00400140 |   0x00400140 |   0x00400140 |   0x00400140 |   0x00400140 |   0x00400140 |   0x00400140 |   0x00400140 |   0x00400140 |   0x00400140 |   0x00400140 |   0x00400140 |   0x00400140 |   0x00400140 |   0x00400140 |   0x00400140 |   0x00400140 |   0x00400140 |   0x00400140 |   0x00400140 |   0x00400140 |   0x00400140 |   0x00400140 |   0x00400140 |   0x00400140 |   0x00400140 |   0x00400140 |   0x00400140 |   0x00400140 |
ld_environ_base                         0x7fff8000 |   0x7fff8000 |   0x7fff8000 |   0x7fff8000 |   0x7fff8000 |   0x7fff8000 |   0x7fff8000 |   0x7fff8000 |   0x7fff8000 |   0x7fff8000 |   0x7fff8000 |   0x7fff8000 |   0x7fff8000 |   0x7fff8000 |   0x7fff8000 |   0x7fff8000 |   0x7fff8000 |   0x7fff8000 |   0x7fff8000 |   0x7fff8000 |   0x7fff8000 |   0x7fff8000 |   0x7fff8000 |   0x7fff8000 |   0x7fff8000 |   0x7fff8000 |   0x7fff8000 |   0x7fff8000 |   0x7fff8000 |   0x7fff8000 |   0x7fff8000 |   0x7fff8000 |   0x7fff8000 |   0x7fff8000 |   0x7fff8000 |   0x7fff8000 |   0x7fff8000 |   0x7fff8000 |   0x7fff8000 |   0x7fff8000 |   0x7fff8000 |   0x7fff8000 |   0x7fff8000 |   0x7fff8000 |
ld_target_big_endian                             0 |            0 |            0 |            0 |            0 |            0 |            0 |            0 |            0 |            0 |            0 |            0 |            0 |            0 |            0 |            0 |            0 |            0 |            0 |            0 |            0 |            0 |            0 |            0 |            0 |            0 |            0 |            0 |            0 |            0 |            0 |            0 |            0 |            0 |            0 |            0 |            0 |            0 |            0 |            0 |            0 |            0 |            0 |            0 |
mem.page_count                                  32 |           32 |           32 |           32 |           36 |           36 |           36 |           36 |           44 |           44 |           44 |           44 |           60 |           60 |           60 |           60 |           92 |           92 |           92 |           92 |          156 |          156 |          156 |          156 |          284 |          284 |          284 |          284 |          540 |          540 |          540 |          540 |         1052 |         1052 |         1052 |         1052 |         4148 |         4148 |         4148 |         4148 |         8264 |         8264 |         8264 |         8264 |
mem.page_mem                                  128k |         128k |         128k |         128k |         144k |         144k |         144k |         144k |         176k |         176k |         176k |         176k |         240k |         240k |         240k |         240k |         368k |         368k |         368k |         368k |         624k |         624k |         624k |         624k |        1136k |        1136k |        1136k |        1136k |        2160k |        2160k |        2160k |        2160k |        4208k |        4208k |        4208k |        4208k |       16592k |       16592k |       16592k |       16592k |       33056k |       33056k |       33056k |       33056k |
mem.ptab_misses                                 32 |           32 |           32 |           32 |           36 |           36 |           36 |           36 |           44 |           44 |           44 |           44 |           60 |           60 |           60 |           60 |           92 |           92 |           92 |           92 |          156 |          156 |          156 |          156 |          284 |          284 |          284 |          284 |          540 |          540 |          540 |          540 |         1052 |         1052 |         1052 |         1052 |        22562 |        22562 |        22562 |        22562 |        26678 |        26678 |        26678 |        26678 |
mem.ptab_accesses                          2674206 |      2674206 |      2674206 |      2674206 |      5082410 |      5082410 |      5082410 |      5082410 |     10273772 |     10273772 |     10273772 |     10273772 |     21882214 |     21882214 |     21882214 |     21882214 |     45407564 |     45407564 |     45407564 |     45407564 |     94275688 |     94275688 |     94275688 |     94275688 |    199629508 |    199629508 |    199629508 |    199629508 |    423615234 |    423615234 |    423615234 |    423615234 |    883303010 |    883303010 |    883303010 |    883303010 |   2528000462 |   2528000462 |   2528000462 |   2528000462 |   5874594098 |   5874594098 |   5874594098 |   5874594098 |
mem.ptab_miss_rate                          0.0000 |       0.0000 |       0.0000 |       0.0000 |       0.0000 |       0.0000 |       0.0000 |       0.0000 |       0.0000 |       0.0000 |       0.0000 |       0.0000 |       0.0000 |       0.0000 |       0.0000 |       0.0000 |       0.0000 |       0.0000 |       0.0000 |       0.0000 |       0.0000 |       0.0000 |       0.0000 |       0.0000 |       0.0000 |       0.0000 |       0.0000 |       0.0000 |       0.0000 |       0.0000 |       0.0000 |       0.0000 |       0.0000 |       0.0000 |       0.0000 |       0.0000 |       0.0000 |       0.0000 |       0.0000 |       0.0000 |       0.0000 |       0.0000 |       0.0000 |       0.0000 |
-------------------------------------------------------------------------------------------------
sim-bpred                                     4096 |         4096 |         4096 |         4096 |         4096 |         4096 |         4096 |         8192 |         8192 |         8192 |         8192 |         8192 |         8192 |         8192 |        16384 |        16384 |        16384 |        16384 |        16384 |        16384 |        16384 |        32768 |        32768 |        32768 |        32768 |        32768 |        32768 |        32768 |        65536 |        65536 |        65536 |        65536 |        65536 |        65536 |        65536 |       131072 |       131072 |       131072 |       131072 |       131072 |       131072 |       131072 |       262144 |       262144 |       262144 |       262144 |       262144 |       262144 |       262144 |       524288 |       524288 |       524288 |       524288 |       524288 |       524288 |       524288 |      1048576 |      1048576 |      1048576 |      1048576 |      1048576 |      1048576 |      1048576 |      2097152 |      2097152 |      2097152 |      2097152 |      2097152 |      2097152 |      2097152 |      4194304 |      4194304 |      4194304 |      4194304 |      4194304 |      4194304 |      4194304 |
-bpred bimod -bpred:bimod 512
-bpred bimod -bpred:bimod 1024
-bpred bimod -bpred:bimod 2048
-bpred 2lev -bpred:2lev 1 512 10 1
-bpred 2lev -bpred:2lev 1 1024 10 1
-bpred 2lev -bpred:2lev 1 2048 10 1
-bpred 2lev -bpred:2lev 1 4096 10 1
-------------------------------------------------------------------------------------------------
sim_num_insn                                476625 |       476625 |       476625 |       476625 |       476625 |       476625 |       476625 |      1002743 |      1002743 |      1002743 |      1002743 |      1002743 |      1002743 |      1002743 |      2138715 |      2138715 |      2138715 |      2138715 |      2138715 |      2138715 |      2138715 |      4693383 |      4693383 |      4693383 |      4693383 |      4693383 |      4693383 |      4693383 |      9858553 |      9858553 |      9858553 |      9858553 |      9858553 |      9858553 |      9858553 |     20589961 |     20589961 |     20589961 |     20589961 |     20589961 |     20589961 |     20589961 |     43778497 |     43778497 |     43778497 |     43778497 |     43778497 |     43778497 |     43778497 |     93161539 |     93161539 |     93161539 |     93161539 |     93161539 |     93161539 |     93161539 |    194442624 |    194442624 |    194442624 |    194442624 |    194442624 |    194442624 |    194442624 |    561658856 |    561658856 |    561658856 |    561658856 |    561658856 |    561658856 |    561658856 |   1314016167 |   1314016167 |   1314016167 |   1314016167 |   1314016167 |   1314016167 |   1314016167 |
sim_num_refs                                124622 |       124622 |       124622 |       124622 |       124622 |       124622 |       124622 |       260008 |       260008 |       260008 |       260008 |       260008 |       260008 |       260008 |       550929 |       550929 |       550929 |       550929 |       550929 |       550929 |       550929 |      1180230 |      1180230 |      1180230 |      1180230 |      1180230 |      1180230 |      1180230 |      2481493 |      2481493 |      2481493 |      2481493 |      2481493 |      2481493 |      2481493 |      5190595 |      5190595 |      5190595 |      5190595 |      5190595 |      5190595 |      5190595 |     10966145 |     10966145 |     10966145 |     10966145 |     10966145 |     10966145 |     10966145 |     23144348 |     23144348 |     23144348 |     23144348 |     23144348 |     23144348 |     23144348 |     48328914 |     48328914 |     48328914 |     48328914 |     48328914 |     48328914 |     48328914 |    132050871 |    132050871 |    132050871 |    132050871 |    132050871 |    132050871 |    132050871 |    292244459 |    292244459 |    292244459 |    292244459 |    292244459 |    292244459 |    292244459 |
sim_elapsed_time                                 1 |            1 |            1 |            1 |            1 |            1 |            1 |            1 |            1 |            1 |            1 |            1 |            1 |            1 |            1 |            1 |            1 |            1 |            1 |            1 |            1 |            1 |            1 |            1 |            1 |            1 |            1 |            1 |            1 |            2 |            1 |            1 |            1 |            1 |            2 |            2 |            3 |            2 |            2 |            3 |            2 |            3 |            6 |            5 |            5 |            6 |            5 |            5 |            6 |           12 |           11 |           11 |           11 |           12 |           11 |           12 |           23 |           23 |           24 |           23 |           24 |           24 |           24 |           70 |           70 |           71 |           72 |           72 |           72 |           72 |          167 |          166 |          167 |          171 |          171 |          171 |          171 |
sim_inst_rate                          476625.0000 |  476625.0000 |  476625.0000 |  476625.0000 |  476625.0000 |  476625.0000 |  476625.0000 | 1002743.0000 | 1002743.0000 | 1002743.0000 | 1002743.0000 | 1002743.0000 | 1002743.0000 | 1002743.0000 | 2138715.0000 | 2138715.0000 | 2138715.0000 | 2138715.0000 | 2138715.0000 | 2138715.0000 | 2138715.0000 | 4693383.0000 | 4693383.0000 | 4693383.0000 | 4693383.0000 | 4693383.0000 | 4693383.0000 | 4693383.0000 | 9858553.0000 | 4929276.5000 | 9858553.0000 | 9858553.0000 | 9858553.0000 | 9858553.0000 | 4929276.5000 |10294980.5000 | 6863320.3333 |10294980.5000 |10294980.5000 | 6863320.3333 |10294980.5000 | 6863320.3333 | 7296416.1667 | 8755699.4000 | 8755699.4000 | 7296416.1667 | 8755699.4000 | 8755699.4000 | 7296416.1667 | 7763461.5833 | 8469230.8182 | 8469230.8182 | 8469230.8182 | 7763461.5833 | 8469230.8182 | 7763461.5833 | 8454027.1304 | 8454027.1304 | 8101776.0000 | 8454027.1304 | 8101776.0000 | 8101776.0000 | 8101776.0000 | 8023697.9429 | 8023697.9429 | 7910688.1127 | 7800817.4444 | 7800817.4444 | 7800817.4444 | 7800817.4444 | 7868360.2814 | 7915760.0422 | 7868360.2814 | 7684305.0702 | 7684305.0702 | 7684305.0702 | 7684305.0702 |
sim_num_branches                             78151 |        78151 |        78151 |        78151 |        78151 |        78151 |        78151 |       165740 |       165740 |       165740 |       165740 |       165740 |       165740 |       165740 |       355861 |       355861 |       355861 |       355861 |       355861 |       355861 |       355861 |       784215 |       784215 |       784215 |       784215 |       784215 |       784215 |       784215 |      1656245 |      1656245 |      1656245 |      1656245 |      1656245 |      1656245 |      1656245 |      3477613 |      3477613 |      3477613 |      3477613 |      3477613 |      3477613 |      3477613 |      7415106 |      7415106 |      7415106 |      7415106 |      7415106 |      7415106 |      7415106 |     15820389 |     15820389 |     15820389 |     15820389 |     15820389 |     15820389 |     15820389 |     33146638 |     33146638 |     33146638 |     33146638 |     33146638 |     33146638 |     33146638 |     99845963 |     99845963 |     99845963 |     99845963 |     99845963 |     99845963 |     99845963 |    252734821 |    252734821 |    252734821 |    252734821 |    252734821 |    252734821 |    252734821 |
sim_IPB                                     6.0988 |       6.0988 |       6.0988 |       6.0988 |       6.0988 |       6.0988 |       6.0988 |       6.0501 |       6.0501 |       6.0501 |       6.0501 |       6.0501 |       6.0501 |       6.0501 |       6.0100 |       6.0100 |       6.0100 |       6.0100 |       6.0100 |       6.0100 |       6.0100 |       5.9848 |       5.9848 |       5.9848 |       5.9848 |       5.9848 |       5.9848 |       5.9848 |       5.9524 |       5.9524 |       5.9524 |       5.9524 |       5.9524 |       5.9524 |       5.9524 |       5.9207 |       5.9207 |       5.9207 |       5.9207 |       5.9207 |       5.9207 |       5.9207 |       5.9040 |       5.9040 |       5.9040 |       5.9040 |       5.9040 |       5.9040 |       5.9040 |       5.8887 |       5.8887 |       5.8887 |       5.8887 |       5.8887 |       5.8887 |       5.8887 |       5.8661 |       5.8661 |       5.8661 |       5.8661 |       5.8661 |       5.8661 |       5.8661 |       5.6253 |       5.6253 |       5.6253 |       5.6253 |       5.6253 |       5.6253 |       5.6253 |       5.1992 |       5.1992 |       5.1992 |       5.1992 |       5.1992 |       5.1992 |       5.1992 |
bpred_bimod.lookups                          78151 |        78151 |        78151 |xxxxxxxxxxxxx |xxxxxxxxxxxxx |xxxxxxxxxxxxx |xxxxxxxxxxxxx |       165740 |       165740 |       165740 |xxxxxxxxxxxxx |xxxxxxxxxxxxx |xxxxxxxxxxxxx |xxxxxxxxxxxxx |       355861 |       355861 |       355861 |xxxxxxxxxxxxx |xxxxxxxxxxxxx |xxxxxxxxxxxxx |xxxxxxxxxxxxx |       784215 |       784215 |       784215 |xxxxxxxxxxxxx |xxxxxxxxxxxxx |xxxxxxxxxxxxx |xxxxxxxxxxxxx |      1656245 |      1656245 |      1656245 |xxxxxxxxxxxxx |xxxxxxxxxxxxx |xxxxxxxxxxxxx |xxxxxxxxxxxxx |      3477613 |      3477613 |      3477613 |xxxxxxxxxxxxx |xxxxxxxxxxxxx |xxxxxxxxxxxxx |xxxxxxxxxxxxx |      7415106 |      7415106 |      7415106 |xxxxxxxxxxxxx |xxxxxxxxxxxxx |xxxxxxxxxxxxx |xxxxxxxxxxxxx |     15820389 |     15820389 |     15820389 |xxxxxxxxxxxxx |xxxxxxxxxxxxx |xxxxxxxxxxxxx |xxxxxxxxxxxxx |     33146638 |     33146638 |     33146638 |xxxxxxxxxxxxx |xxxxxxxxxxxxx |xxxxxxxxxxxxx |xxxxxxxxxxxxx |     99845963 |     99845963 |     99845963 |xxxxxxxxxxxxx |xxxxxxxxxxxxx |xxxxxxxxxxxxx |xxxxxxxxxxxxx |    252734821 |    252734821 |    252734821 |
bpred_bimod.updates                          78151 |        78151 |        78151 |xxxxxxxxxxxxx |xxxxxxxxxxxxx |xxxxxxxxxxxxx |xxxxxxxxxxxxx |       165740 |       165740 |       165740 |xxxxxxxxxxxxx |xxxxxxxxxxxxx |xxxxxxxxxxxxx |xxxxxxxxxxxxx |       355861 |       355861 |       355861 |xxxxxxxxxxxxx |xxxxxxxxxxxxx |xxxxxxxxxxxxx |xxxxxxxxxxxxx |       784215 |       784215 |       784215 |xxxxxxxxxxxxx |xxxxxxxxxxxxx |xxxxxxxxxxxxx |xxxxxxxxxxxxx |      1656245 |      1656245 |      1656245 |xxxxxxxxxxxxx |xxxxxxxxxxxxx |xxxxxxxxxxxxx |xxxxxxxxxxxxx |      3477613 |      3477613 |      3477613 |xxxxxxxxxxxxx |xxxxxxxxxxxxx |xxxxxxxxxxxxx |xxxxxxxxxxxxx |      7415106 |      7415106 |      7415106 |xxxxxxxxxxxxx |xxxxxxxxxxxxx |xxxxxxxxxxxxx |xxxxxxxxxxxxx |     15820389 |     15820389 |     15820389 |xxxxxxxxxxxxx |xxxxxxxxxxxxx |xxxxxxxxxxxxx |xxxxxxxxxxxxx |     33146638 |     33146638 |     33146638 |xxxxxxxxxxxxx |xxxxxxxxxxxxx |xxxxxxxxxxxxx |xxxxxxxxxxxxx |     99845963 |     99845963 |     99845963 |xxxxxxxxxxxxx |xxxxxxxxxxxxx |xxxxxxxxxxxxx |xxxxxxxxxxxxx |    252734821 |    252734821 |    252734821 |
bpred_bimod.addr_hits                        56995 |        56996 |        56996 |xxxxxxxxxxxxx |xxxxxxxxxxxxx |xxxxxxxxxxxxx |xxxxxxxxxxxxx |       119690 |       119687 |       119685 |xxxxxxxxxxxxx |xxxxxxxxxxxxx |xxxxxxxxxxxxx |xxxxxxxxxxxxx |       256844 |       256844 |       256845 |xxxxxxxxxxxxx |xxxxxxxxxxxxx |xxxxxxxxxxxxx |xxxxxxxxxxxxx |       576461 |       576460 |       576461 |xxxxxxxxxxxxx |xxxxxxxxxxxxx |xxxxxxxxxxxxx |xxxxxxxxxxxxx |      1209830 |      1209828 |      1209829 |xxxxxxxxxxxxx |xxxxxxxxxxxxx |xxxxxxxxxxxxx |xxxxxxxxxxxxx |      2511347 |      2511347 |      2511348 |xxxxxxxxxxxxx |xxxxxxxxxxxxx |xxxxxxxxxxxxx |xxxxxxxxxxxxx |      5373175 |      5373175 |      5373175 |xxxxxxxxxxxxx |xxxxxxxxxxxxx |xxxxxxxxxxxxx |xxxxxxxxxxxxx |     11588589 |     11588588 |     11588589 |xxxxxxxxxxxxx |xxxxxxxxxxxxx |xxxxxxxxxxxxx |xxxxxxxxxxxxx |     24127273 |     24127272 |     24127273 |xxxxxxxxxxxxx |xxxxxxxxxxxxx |xxxxxxxxxxxxx |xxxxxxxxxxxxx |     81779101 |     81779125 |     81779126 |xxxxxxxxxxxxx |xxxxxxxxxxxxx |xxxxxxxxxxxxx |xxxxxxxxxxxxx |    216191408 |    216191454 |    216191455 |
bpred_bimod.dir_hits                         57114 |        57112 |        57112 |xxxxxxxxxxxxx |xxxxxxxxxxxxx |xxxxxxxxxxxxx |xxxxxxxxxxxxx |       119806 |       119801 |       119800 |xxxxxxxxxxxxx |xxxxxxxxxxxxx |xxxxxxxxxxxxx |xxxxxxxxxxxxx |       256958 |       256956 |       256957 |xxxxxxxxxxxxx |xxxxxxxxxxxxx |xxxxxxxxxxxxx |xxxxxxxxxxxxx |       576574 |       576572 |       576573 |xxxxxxxxxxxxx |xxxxxxxxxxxxx |xxxxxxxxxxxxx |xxxxxxxxxxxxx |      1209946 |      1209942 |      1209942 |xxxxxxxxxxxxx |xxxxxxxxxxxxx |xxxxxxxxxxxxx |xxxxxxxxxxxxx |      2511464 |      2511462 |      2511462 |xxxxxxxxxxxxx |xxxxxxxxxxxxx |xxxxxxxxxxxxx |xxxxxxxxxxxxx |      5373290 |      5373289 |      5373288 |xxxxxxxxxxxxx |xxxxxxxxxxxxx |xxxxxxxxxxxxx |xxxxxxxxxxxxx |     11588703 |     11588700 |     11588701 |xxxxxxxxxxxxx |xxxxxxxxxxxxx |xxxxxxxxxxxxx |xxxxxxxxxxxxx |     24127388 |     24127385 |     24127385 |xxxxxxxxxxxxx |xxxxxxxxxxxxx |xxxxxxxxxxxxx |xxxxxxxxxxxxx |     81779267 |     81779286 |     81779285 |xxxxxxxxxxxxx |xxxxxxxxxxxxx |xxxxxxxxxxxxx |xxxxxxxxxxxxx |    216191575 |    216191616 |    216191615 |
bpred_bimod.misses                           21037 |        21039 |        21039 |xxxxxxxxxxxxx |xxxxxxxxxxxxx |xxxxxxxxxxxxx |xxxxxxxxxxxxx |        45934 |        45939 |        45940 |xxxxxxxxxxxxx |xxxxxxxxxxxxx |xxxxxxxxxxxxx |xxxxxxxxxxxxx |        98903 |        98905 |        98904 |xxxxxxxxxxxxx |xxxxxxxxxxxxx |xxxxxxxxxxxxx |xxxxxxxxxxxxx |       207641 |       207643 |       207642 |xxxxxxxxxxxxx |xxxxxxxxxxxxx |xxxxxxxxxxxxx |xxxxxxxxxxxxx |       446299 |       446303 |       446303 |xxxxxxxxxxxxx |xxxxxxxxxxxxx |xxxxxxxxxxxxx |xxxxxxxxxxxxx |       966149 |       966151 |       966151 |xxxxxxxxxxxxx |xxxxxxxxxxxxx |xxxxxxxxxxxxx |xxxxxxxxxxxxx |      2041816 |      2041817 |      2041818 |xxxxxxxxxxxxx |xxxxxxxxxxxxx |xxxxxxxxxxxxx |xxxxxxxxxxxxx |      4231686 |      4231689 |      4231688 |xxxxxxxxxxxxx |xxxxxxxxxxxxx |xxxxxxxxxxxxx |xxxxxxxxxxxxx |      9019250 |      9019253 |      9019253 |xxxxxxxxxxxxx |xxxxxxxxxxxxx |xxxxxxxxxxxxx |xxxxxxxxxxxxx |     18066696 |     18066677 |     18066678 |xxxxxxxxxxxxx |xxxxxxxxxxxxx |xxxxxxxxxxxxx |xxxxxxxxxxxxx |     36543246 |     36543205 |     36543206 |
bpred_bimod.jr_hits                             65 |           65 |           65 |xxxxxxxxxxxxx |xxxxxxxxxxxxx |xxxxxxxxxxxxx |xxxxxxxxxxxxx |           65 |           65 |           65 |xxxxxxxxxxxxx |xxxxxxxxxxxxx |xxxxxxxxxxxxx |xxxxxxxxxxxxx |           65 |           65 |           65 |xxxxxxxxxxxxx |xxxxxxxxxxxxx |xxxxxxxxxxxxx |xxxxxxxxxxxxx |           65 |           65 |           65 |xxxxxxxxxxxxx |xxxxxxxxxxxxx |xxxxxxxxxxxxx |xxxxxxxxxxxxx |           65 |           65 |           65 |xxxxxxxxxxxxx |xxxxxxxxxxxxx |xxxxxxxxxxxxx |xxxxxxxxxxxxx |           65 |           65 |           65 |xxxxxxxxxxxxx |xxxxxxxxxxxxx |xxxxxxxxxxxxx |xxxxxxxxxxxxx |           65 |           65 |           65 |xxxxxxxxxxxxx |xxxxxxxxxxxxx |xxxxxxxxxxxxx |xxxxxxxxxxxxx |           65 |           65 |           65 |xxxxxxxxxxxxx |xxxxxxxxxxxxx |xxxxxxxxxxxxx |xxxxxxxxxxxxx |           65 |           65 |           65 |xxxxxxxxxxxxx |xxxxxxxxxxxxx |xxxxxxxxxxxxx |xxxxxxxxxxxxx |          110 |          110 |          110 |xxxxxxxxxxxxx |xxxxxxxxxxxxx |xxxxxxxxxxxxx |xxxxxxxxxxxxx |          122 |          122 |          122 |
bpred_bimod.jr_seen                             65 |           65 |           65 |xxxxxxxxxxxxx |xxxxxxxxxxxxx |xxxxxxxxxxxxx |xxxxxxxxxxxxx |           65 |           65 |           65 |xxxxxxxxxxxxx |xxxxxxxxxxxxx |xxxxxxxxxxxxx |xxxxxxxxxxxxx |           65 |           65 |           65 |xxxxxxxxxxxxx |xxxxxxxxxxxxx |xxxxxxxxxxxxx |xxxxxxxxxxxxx |           65 |           65 |           65 |xxxxxxxxxxxxx |xxxxxxxxxxxxx |xxxxxxxxxxxxx |xxxxxxxxxxxxx |           65 |           65 |           65 |xxxxxxxxxxxxx |xxxxxxxxxxxxx |xxxxxxxxxxxxx |xxxxxxxxxxxxx |           65 |           65 |           65 |xxxxxxxxxxxxx |xxxxxxxxxxxxx |xxxxxxxxxxxxx |xxxxxxxxxxxxx |           65 |           65 |           65 |xxxxxxxxxxxxx |xxxxxxxxxxxxx |xxxxxxxxxxxxx |xxxxxxxxxxxxx |           65 |           65 |           65 |xxxxxxxxxxxxx |xxxxxxxxxxxxx |xxxxxxxxxxxxx |xxxxxxxxxxxxx |           65 |           65 |           65 |xxxxxxxxxxxxx |xxxxxxxxxxxxx |xxxxxxxxxxxxx |xxxxxxxxxxxxx |          111 |          111 |          111 |xxxxxxxxxxxxx |xxxxxxxxxxxxx |xxxxxxxxxxxxx |xxxxxxxxxxxxx |          123 |          123 |          123 |
bpred_bimod.jr_non_ras_hits.PP                   0 |            0 |            0 |xxxxxxxxxxxxx |xxxxxxxxxxxxx |xxxxxxxxxxxxx |xxxxxxxxxxxxx |            0 |            0 |            0 |xxxxxxxxxxxxx |xxxxxxxxxxxxx |xxxxxxxxxxxxx |xxxxxxxxxxxxx |            0 |            0 |            0 |xxxxxxxxxxxxx |xxxxxxxxxxxxx |xxxxxxxxxxxxx |xxxxxxxxxxxxx |            0 |            0 |            0 |xxxxxxxxxxxxx |xxxxxxxxxxxxx |xxxxxxxxxxxxx |xxxxxxxxxxxxx |            0 |            0 |            0 |xxxxxxxxxxxxx |xxxxxxxxxxxxx |xxxxxxxxxxxxx |xxxxxxxxxxxxx |            0 |            0 |            0 |xxxxxxxxxxxxx |xxxxxxxxxxxxx |xxxxxxxxxxxxx |xxxxxxxxxxxxx |            0 |            0 |            0 |xxxxxxxxxxxxx |xxxxxxxxxxxxx |xxxxxxxxxxxxx |xxxxxxxxxxxxx |            0 |            0 |            0 |xxxxxxxxxxxxx |xxxxxxxxxxxxx |xxxxxxxxxxxxx |xxxxxxxxxxxxx |            0 |            0 |            0 |xxxxxxxxxxxxx |xxxxxxxxxxxxx |xxxxxxxxxxxxx |xxxxxxxxxxxxx |            0 |            0 |            0 |xxxxxxxxxxxxx |xxxxxxxxxxxxx |xxxxxxxxxxxxx |xxxxxxxxxxxxx |            0 |            0 |            0 |
bpred_bimod.jr_non_ras_seen.PP                   0 |            0 |            0 |xxxxxxxxxxxxx |xxxxxxxxxxxxx |xxxxxxxxxxxxx |xxxxxxxxxxxxx |            0 |            0 |            0 |xxxxxxxxxxxxx |xxxxxxxxxxxxx |xxxxxxxxxxxxx |xxxxxxxxxxxxx |            0 |            0 |            0 |xxxxxxxxxxxxx |xxxxxxxxxxxxx |xxxxxxxxxxxxx |xxxxxxxxxxxxx |            0 |            0 |            0 |xxxxxxxxxxxxx |xxxxxxxxxxxxx |xxxxxxxxxxxxx |xxxxxxxxxxxxx |            0 |            0 |            0 |xxxxxxxxxxxxx |xxxxxxxxxxxxx |xxxxxxxxxxxxx |xxxxxxxxxxxxx |            0 |            0 |            0 |xxxxxxxxxxxxx |xxxxxxxxxxxxx |xxxxxxxxxxxxx |xxxxxxxxxxxxx |            0 |            0 |            0 |xxxxxxxxxxxxx |xxxxxxxxxxxxx |xxxxxxxxxxxxx |xxxxxxxxxxxxx |            0 |            0 |            0 |xxxxxxxxxxxxx |xxxxxxxxxxxxx |xxxxxxxxxxxxx |xxxxxxxxxxxxx |            0 |            0 |            0 |xxxxxxxxxxxxx |xxxxxxxxxxxxx |xxxxxxxxxxxxx |xxxxxxxxxxxxx |            1 |            1 |            1 |xxxxxxxxxxxxx |xxxxxxxxxxxxx |xxxxxxxxxxxxx |xxxxxxxxxxxxx |            1 |            1 |            1 |
bpred_bimod.bpred_addr_rate                 0.7293 |       0.7293 |       0.7293 |xxxxxxxxxxxxx |xxxxxxxxxxxxx |xxxxxxxxxxxxx |xxxxxxxxxxxxx |       0.7222 |       0.7221 |       0.7221 |xxxxxxxxxxxxx |xxxxxxxxxxxxx |xxxxxxxxxxxxx |xxxxxxxxxxxxx |       0.7218 |       0.7218 |       0.7218 |xxxxxxxxxxxxx |xxxxxxxxxxxxx |xxxxxxxxxxxxx |xxxxxxxxxxxxx |       0.7351 |       0.7351 |       0.7351 |xxxxxxxxxxxxx |xxxxxxxxxxxxx |xxxxxxxxxxxxx |xxxxxxxxxxxxx |       0.7305 |       0.7305 |       0.7305 |xxxxxxxxxxxxx |xxxxxxxxxxxxx |xxxxxxxxxxxxx |xxxxxxxxxxxxx |       0.7221 |       0.7221 |       0.7221 |xxxxxxxxxxxxx |xxxxxxxxxxxxx |xxxxxxxxxxxxx |xxxxxxxxxxxxx |       0.7246 |       0.7246 |       0.7246 |xxxxxxxxxxxxx |xxxxxxxxxxxxx |xxxxxxxxxxxxx |xxxxxxxxxxxxx |       0.7325 |       0.7325 |       0.7325 |xxxxxxxxxxxxx |xxxxxxxxxxxxx |xxxxxxxxxxxxx |xxxxxxxxxxxxx |       0.7279 |       0.7279 |       0.7279 |xxxxxxxxxxxxx |xxxxxxxxxxxxx |xxxxxxxxxxxxx |xxxxxxxxxxxxx |       0.8191 |       0.8191 |       0.8191 |xxxxxxxxxxxxx |xxxxxxxxxxxxx |xxxxxxxxxxxxx |xxxxxxxxxxxxx |       0.8554 |       0.8554 |       0.8554 |
bpred_bimod.bpred_dir_rate                  0.7308 |       0.7308 |       0.7308 |xxxxxxxxxxxxx |xxxxxxxxxxxxx |xxxxxxxxxxxxx |xxxxxxxxxxxxx |       0.7229 |       0.7228 |       0.7228 |xxxxxxxxxxxxx |xxxxxxxxxxxxx |xxxxxxxxxxxxx |xxxxxxxxxxxxx |       0.7221 |       0.7221 |       0.7221 |xxxxxxxxxxxxx |xxxxxxxxxxxxx |xxxxxxxxxxxxx |xxxxxxxxxxxxx |       0.7352 |       0.7352 |       0.7352 |xxxxxxxxxxxxx |xxxxxxxxxxxxx |xxxxxxxxxxxxx |xxxxxxxxxxxxx |       0.7305 |       0.7305 |       0.7305 |xxxxxxxxxxxxx |xxxxxxxxxxxxx |xxxxxxxxxxxxx |xxxxxxxxxxxxx |       0.7222 |       0.7222 |       0.7222 |xxxxxxxxxxxxx |xxxxxxxxxxxxx |xxxxxxxxxxxxx |xxxxxxxxxxxxx |       0.7246 |       0.7246 |       0.7246 |xxxxxxxxxxxxx |xxxxxxxxxxxxx |xxxxxxxxxxxxx |xxxxxxxxxxxxx |       0.7325 |       0.7325 |       0.7325 |xxxxxxxxxxxxx |xxxxxxxxxxxxx |xxxxxxxxxxxxx |xxxxxxxxxxxxx |       0.7279 |       0.7279 |       0.7279 |xxxxxxxxxxxxx |xxxxxxxxxxxxx |xxxxxxxxxxxxx |xxxxxxxxxxxxx |       0.8191 |       0.8191 |       0.8191 |xxxxxxxxxxxxx |xxxxxxxxxxxxx |xxxxxxxxxxxxx |xxxxxxxxxxxxx |       0.8554 |       0.8554 |       0.8554 |
bpred_bimod.bpred_jr_rate                   1.0000 |       1.0000 |       1.0000 |xxxxxxxxxxxxx |xxxxxxxxxxxxx |xxxxxxxxxxxxx |xxxxxxxxxxxxx |       1.0000 |       1.0000 |       1.0000 |xxxxxxxxxxxxx |xxxxxxxxxxxxx |xxxxxxxxxxxxx |xxxxxxxxxxxxx |       1.0000 |       1.0000 |       1.0000 |xxxxxxxxxxxxx |xxxxxxxxxxxxx |xxxxxxxxxxxxx |xxxxxxxxxxxxx |       1.0000 |       1.0000 |       1.0000 |xxxxxxxxxxxxx |xxxxxxxxxxxxx |xxxxxxxxxxxxx |xxxxxxxxxxxxx |       1.0000 |       1.0000 |       1.0000 |xxxxxxxxxxxxx |xxxxxxxxxxxxx |xxxxxxxxxxxxx |xxxxxxxxxxxxx |       1.0000 |       1.0000 |       1.0000 |xxxxxxxxxxxxx |xxxxxxxxxxxxx |xxxxxxxxxxxxx |xxxxxxxxxxxxx |       1.0000 |       1.0000 |       1.0000 |xxxxxxxxxxxxx |xxxxxxxxxxxxx |xxxxxxxxxxxxx |xxxxxxxxxxxxx |       1.0000 |       1.0000 |       1.0000 |xxxxxxxxxxxxx |xxxxxxxxxxxxx |xxxxxxxxxxxxx |xxxxxxxxxxxxx |       1.0000 |       1.0000 |       1.0000 |xxxxxxxxxxxxx |xxxxxxxxxxxxx |xxxxxxxxxxxxx |xxxxxxxxxxxxx |       0.9910 |       0.9910 |       0.9910 |xxxxxxxxxxxxx |xxxxxxxxxxxxx |xxxxxxxxxxxxx |xxxxxxxxxxxxx |       0.9919 |       0.9919 |       0.9919 |
bpred_bimod.bpred_jr_non_ras_rate.PP       <error: |      <error: |      <error: |xxxxxxxxxxxxx |xxxxxxxxxxxxx |xxxxxxxxxxxxx |xxxxxxxxxxxxx |      <error: |      <error: |      <error: |xxxxxxxxxxxxx |xxxxxxxxxxxxx |xxxxxxxxxxxxx |xxxxxxxxxxxxx |      <error: |      <error: |      <error: |xxxxxxxxxxxxx |xxxxxxxxxxxxx |xxxxxxxxxxxxx |xxxxxxxxxxxxx |      <error: |      <error: |      <error: |xxxxxxxxxxxxx |xxxxxxxxxxxxx |xxxxxxxxxxxxx |xxxxxxxxxxxxx |      <error: |      <error: |      <error: |xxxxxxxxxxxxx |xxxxxxxxxxxxx |xxxxxxxxxxxxx |xxxxxxxxxxxxx |      <error: |      <error: |      <error: |xxxxxxxxxxxxx |xxxxxxxxxxxxx |xxxxxxxxxxxxx |xxxxxxxxxxxxx |      <error: |      <error: |      <error: |xxxxxxxxxxxxx |xxxxxxxxxxxxx |xxxxxxxxxxxxx |xxxxxxxxxxxxx |      <error: |      <error: |      <error: |xxxxxxxxxxxxx |xxxxxxxxxxxxx |xxxxxxxxxxxxx |xxxxxxxxxxxxx |      <error: |      <error: |      <error: |xxxxxxxxxxxxx |xxxxxxxxxxxxx |xxxxxxxxxxxxx |xxxxxxxxxxxxx |       0.0000 |       0.0000 |       0.0000 |xxxxxxxxxxxxx |xxxxxxxxxxxxx |xxxxxxxxxxxxx |xxxxxxxxxxxxx |       0.0000 |       0.0000 |       0.0000 |
bpred_bimod.retstack_pushes                     67 |           67 |           67 |xxxxxxxxxxxxx |xxxxxxxxxxxxx |xxxxxxxxxxxxx |xxxxxxxxxxxxx |           67 |           67 |           67 |xxxxxxxxxxxxx |xxxxxxxxxxxxx |xxxxxxxxxxxxx |xxxxxxxxxxxxx |           67 |           67 |           67 |xxxxxxxxxxxxx |xxxxxxxxxxxxx |xxxxxxxxxxxxx |xxxxxxxxxxxxx |           67 |           67 |           67 |xxxxxxxxxxxxx |xxxxxxxxxxxxx |xxxxxxxxxxxxx |xxxxxxxxxxxxx |           67 |           67 |           67 |xxxxxxxxxxxxx |xxxxxxxxxxxxx |xxxxxxxxxxxxx |xxxxxxxxxxxxx |           67 |           67 |           67 |xxxxxxxxxxxxx |xxxxxxxxxxxxx |xxxxxxxxxxxxx |xxxxxxxxxxxxx |           67 |           67 |           67 |xxxxxxxxxxxxx |xxxxxxxxxxxxx |xxxxxxxxxxxxx |xxxxxxxxxxxxx |           67 |           67 |           67 |xxxxxxxxxxxxx |xxxxxxxxxxxxx |xxxxxxxxxxxxx |xxxxxxxxxxxxx |           67 |           67 |           67 |xxxxxxxxxxxxx |xxxxxxxxxxxxx |xxxxxxxxxxxxx |xxxxxxxxxxxxx |          112 |          112 |          112 |xxxxxxxxxxxxx |xxxxxxxxxxxxx |xxxxxxxxxxxxx |xxxxxxxxxxxxx |          124 |          124 |          124 |
bpred_bimod.retstack_pops                       65 |           65 |           65 |xxxxxxxxxxxxx |xxxxxxxxxxxxx |xxxxxxxxxxxxx |xxxxxxxxxxxxx |           65 |           65 |           65 |xxxxxxxxxxxxx |xxxxxxxxxxxxx |xxxxxxxxxxxxx |xxxxxxxxxxxxx |           65 |           65 |           65 |xxxxxxxxxxxxx |xxxxxxxxxxxxx |xxxxxxxxxxxxx |xxxxxxxxxxxxx |           65 |           65 |           65 |xxxxxxxxxxxxx |xxxxxxxxxxxxx |xxxxxxxxxxxxx |xxxxxxxxxxxxx |           65 |           65 |           65 |xxxxxxxxxxxxx |xxxxxxxxxxxxx |xxxxxxxxxxxxx |xxxxxxxxxxxxx |           65 |           65 |           65 |xxxxxxxxxxxxx |xxxxxxxxxxxxx |xxxxxxxxxxxxx |xxxxxxxxxxxxx |           65 |           65 |           65 |xxxxxxxxxxxxx |xxxxxxxxxxxxx |xxxxxxxxxxxxx |xxxxxxxxxxxxx |           65 |           65 |           65 |xxxxxxxxxxxxx |xxxxxxxxxxxxx |xxxxxxxxxxxxx |xxxxxxxxxxxxx |           65 |           65 |           65 |xxxxxxxxxxxxx |xxxxxxxxxxxxx |xxxxxxxxxxxxx |xxxxxxxxxxxxx |          110 |          110 |          110 |xxxxxxxxxxxxx |xxxxxxxxxxxxx |xxxxxxxxxxxxx |xxxxxxxxxxxxx |          122 |          122 |          122 |
bpred_bimod.used_ras.PP                         65 |           65 |           65 |xxxxxxxxxxxxx |xxxxxxxxxxxxx |xxxxxxxxxxxxx |xxxxxxxxxxxxx |           65 |           65 |           65 |xxxxxxxxxxxxx |xxxxxxxxxxxxx |xxxxxxxxxxxxx |xxxxxxxxxxxxx |           65 |           65 |           65 |xxxxxxxxxxxxx |xxxxxxxxxxxxx |xxxxxxxxxxxxx |xxxxxxxxxxxxx |           65 |           65 |           65 |xxxxxxxxxxxxx |xxxxxxxxxxxxx |xxxxxxxxxxxxx |xxxxxxxxxxxxx |           65 |           65 |           65 |xxxxxxxxxxxxx |xxxxxxxxxxxxx |xxxxxxxxxxxxx |xxxxxxxxxxxxx |           65 |           65 |           65 |xxxxxxxxxxxxx |xxxxxxxxxxxxx |xxxxxxxxxxxxx |xxxxxxxxxxxxx |           65 |           65 |           65 |xxxxxxxxxxxxx |xxxxxxxxxxxxx |xxxxxxxxxxxxx |xxxxxxxxxxxxx |           65 |           65 |           65 |xxxxxxxxxxxxx |xxxxxxxxxxxxx |xxxxxxxxxxxxx |xxxxxxxxxxxxx |           65 |           65 |           65 |xxxxxxxxxxxxx |xxxxxxxxxxxxx |xxxxxxxxxxxxx |xxxxxxxxxxxxx |          110 |          110 |          110 |xxxxxxxxxxxxx |xxxxxxxxxxxxx |xxxxxxxxxxxxx |xxxxxxxxxxxxx |          122 |          122 |          122 |
bpred_bimod.ras_hits.PP                         65 |           65 |           65 |xxxxxxxxxxxxx |xxxxxxxxxxxxx |xxxxxxxxxxxxx |xxxxxxxxxxxxx |           65 |           65 |           65 |xxxxxxxxxxxxx |xxxxxxxxxxxxx |xxxxxxxxxxxxx |xxxxxxxxxxxxx |           65 |           65 |           65 |xxxxxxxxxxxxx |xxxxxxxxxxxxx |xxxxxxxxxxxxx |xxxxxxxxxxxxx |           65 |           65 |           65 |xxxxxxxxxxxxx |xxxxxxxxxxxxx |xxxxxxxxxxxxx |xxxxxxxxxxxxx |           65 |           65 |           65 |xxxxxxxxxxxxx |xxxxxxxxxxxxx |xxxxxxxxxxxxx |xxxxxxxxxxxxx |           65 |           65 |           65 |xxxxxxxxxxxxx |xxxxxxxxxxxxx |xxxxxxxxxxxxx |xxxxxxxxxxxxx |           65 |           65 |           65 |xxxxxxxxxxxxx |xxxxxxxxxxxxx |xxxxxxxxxxxxx |xxxxxxxxxxxxx |           65 |           65 |           65 |xxxxxxxxxxxxx |xxxxxxxxxxxxx |xxxxxxxxxxxxx |xxxxxxxxxxxxx |           65 |           65 |           65 |xxxxxxxxxxxxx |xxxxxxxxxxxxx |xxxxxxxxxxxxx |xxxxxxxxxxxxx |          110 |          110 |          110 |xxxxxxxxxxxxx |xxxxxxxxxxxxx |xxxxxxxxxxxxx |xxxxxxxxxxxxx |          122 |          122 |          122 |
bpred_bimod.ras_rate.PP                     1.0000 |       1.0000 |       1.0000 |xxxxxxxxxxxxx |xxxxxxxxxxxxx |xxxxxxxxxxxxx |xxxxxxxxxxxxx |       1.0000 |       1.0000 |       1.0000 |xxxxxxxxxxxxx |xxxxxxxxxxxxx |xxxxxxxxxxxxx |xxxxxxxxxxxxx |       1.0000 |       1.0000 |       1.0000 |xxxxxxxxxxxxx |xxxxxxxxxxxxx |xxxxxxxxxxxxx |xxxxxxxxxxxxx |       1.0000 |       1.0000 |       1.0000 |xxxxxxxxxxxxx |xxxxxxxxxxxxx |xxxxxxxxxxxxx |xxxxxxxxxxxxx |       1.0000 |       1.0000 |       1.0000 |xxxxxxxxxxxxx |xxxxxxxxxxxxx |xxxxxxxxxxxxx |xxxxxxxxxxxxx |       1.0000 |       1.0000 |       1.0000 |xxxxxxxxxxxxx |xxxxxxxxxxxxx |xxxxxxxxxxxxx |xxxxxxxxxxxxx |       1.0000 |       1.0000 |       1.0000 |xxxxxxxxxxxxx |xxxxxxxxxxxxx |xxxxxxxxxxxxx |xxxxxxxxxxxxx |       1.0000 |       1.0000 |       1.0000 |xxxxxxxxxxxxx |xxxxxxxxxxxxx |xxxxxxxxxxxxx |xxxxxxxxxxxxx |       1.0000 |       1.0000 |       1.0000 |xxxxxxxxxxxxx |xxxxxxxxxxxxx |xxxxxxxxxxxxx |xxxxxxxxxxxxx |       1.0000 |       1.0000 |       1.0000 |xxxxxxxxxxxxx |xxxxxxxxxxxxx |xxxxxxxxxxxxx |xxxxxxxxxxxxx |       1.0000 |       1.0000 |       1.0000 |
bpred_2lev.lookups                   xxxxxxxxxxxxx |xxxxxxxxxxxxx |xxxxxxxxxxxxx |        78151 |        78151 |        78151 |        78151 |xxxxxxxxxxxxx |xxxxxxxxxxxxx |xxxxxxxxxxxxx |       165740 |       165740 |       165740 |       165740 |xxxxxxxxxxxxx |xxxxxxxxxxxxx |xxxxxxxxxxxxx |       355861 |       355861 |       355861 |       355861 |xxxxxxxxxxxxx |xxxxxxxxxxxxx |xxxxxxxxxxxxx |       784215 |       784215 |       784215 |       784215 |xxxxxxxxxxxxx |xxxxxxxxxxxxx |xxxxxxxxxxxxx |      1656245 |      1656245 |      1656245 |      1656245 |xxxxxxxxxxxxx |xxxxxxxxxxxxx |xxxxxxxxxxxxx |      3477613 |      3477613 |      3477613 |      3477613 |xxxxxxxxxxxxx |xxxxxxxxxxxxx |xxxxxxxxxxxxx |      7415106 |      7415106 |      7415106 |      7415106 |xxxxxxxxxxxxx |xxxxxxxxxxxxx |xxxxxxxxxxxxx |     15820389 |     15820389 |     15820389 |     15820389 |xxxxxxxxxxxxx |xxxxxxxxxxxxx |xxxxxxxxxxxxx |     33146638 |     33146638 |     33146638 |     33146638 |xxxxxxxxxxxxx |xxxxxxxxxxxxx |xxxxxxxxxxxxx |     99845963 |     99845963 |     99845963 |     99845963 |xxxxxxxxxxxxx |xxxxxxxxxxxxx |xxxxxxxxxxxxx |    252734821 |    252734821 |    252734821 |    252734821 |
[...]
bpred_2lev.retstack_pushes           xxxxxxxxxxxxx |xxxxxxxxxxxxx |xxxxxxxxxxxxx |           67 |           67 |           67 |           67 |xxxxxxxxxxxxx |xxxxxxxxxxxxx |xxxxxxxxxxxxx |           67 |           67 |           67 |           67 |xxxxxxxxxxxxx |xxxxxxxxxxxxx |xxxxxxxxxxxxx |           67 |           67 |           67 |           67 |xxxxxxxxxxxxx |xxxxxxxxxxxxx |xxxxxxxxxxxxx |           67 |           67 |           67 |           67 |xxxxxxxxxxxxx |xxxxxxxxxxxxx |xxxxxxxxxxxxx |           67 |           67 |           67 |           67 |xxxxxxxxxxxxx |xxxxxxxxxxxxx |xxxxxxxxxxxxx |           67 |           67 |           67 |           67 |xxxxxxxxxxxxx |xxxxxxxxxxxxx |xxxxxxxxxxxxx |           67 |           67 |           67 |           67 |xxxxxxxxxxxxx |xxxxxxxxxxxxx |xxxxxxxxxxxxx |           67 |           67 |           67 |           67 |xxxxxxxxxxxxx |xxxxxxxxxxxxx |xxxxxxxxxxxxx |           67 |           67 |           67 |           67 |xxxxxxxxxxxxx |xxxxxxxxxxxxx |xxxxxxxxxxxxx |          112 |          112 |          112 |          112 |xxxxxxxxxxxxx |xxxxxxxxxxxxx |xxxxxxxxxxxxx |          124 |          124 |          124 |          124 |
bpred_2lev.retstack_pops             xxxxxxxxxxxxx |xxxxxxxxxxxxx |xxxxxxxxxxxxx |           65 |           65 |           65 |           65 |xxxxxxxxxxxxx |xxxxxxxxxxxxx |xxxxxxxxxxxxx |           65 |           65 |           65 |           65 |xxxxxxxxxxxxx |xxxxxxxxxxxxx |xxxxxxxxxxxxx |           65 |           65 |           65 |           65 |xxxxxxxxxxxxx |xxxxxxxxxxxxx |xxxxxxxxxxxxx |           65 |           65 |           65 |           65 |xxxxxxxxxxxxx |xxxxxxxxxxxxx |xxxxxxxxxxxxx |           65 |           65 |           65 |           65 |xxxxxxxxxxxxx |xxxxxxxxxxxxx |xxxxxxxxxxxxx |           65 |           65 |           65 |           65 |xxxxxxxxxxxxx |xxxxxxxxxxxxx |xxxxxxxxxxxxx |           65 |           65 |           65 |           65 |xxxxxxxxxxxxx |xxxxxxxxxxxxx |xxxxxxxxxxxxx |           65 |           65 |           65 |           65 |xxxxxxxxxxxxx |xxxxxxxxxxxxx |xxxxxxxxxxxxx |           65 |           65 |           65 |           65 |xxxxxxxxxxxxx |xxxxxxxxxxxxx |xxxxxxxxxxxxx |          110 |          110 |          110 |          110 |xxxxxxxxxxxxx |xxxxxxxxxxxxx |xxxxxxxxxxxxx |          122 |          122 |          122 |          122 |
bpred_2lev.used_ras.PP               xxxxxxxxxxxxx |xxxxxxxxxxxxx |xxxxxxxxxxxxx |           65 |           65 |           65 |           65 |xxxxxxxxxxxxx |xxxxxxxxxxxxx |xxxxxxxxxxxxx |           65 |           65 |           65 |           65 |xxxxxxxxxxxxx |xxxxxxxxxxxxx |xxxxxxxxxxxxx |           65 |           65 |           65 |           65 |xxxxxxxxxxxxx |xxxxxxxxxxxxx |xxxxxxxxxxxxx |           65 |           65 |           65 |           65 |xxxxxxxxxxxxx |xxxxxxxxxxxxx |xxxxxxxxxxxxx |           65 |           65 |           65 |           65 |xxxxxxxxxxxxx |xxxxxxxxxxxxx |xxxxxxxxxxxxx |           65 |           65 |           65 |           65 |xxxxxxxxxxxxx |xxxxxxxxxxxxx |xxxxxxxxxxxxx |           65 |           65 |           65 |           65 |xxxxxxxxxxxxx |xxxxxxxxxxxxx |xxxxxxxxxxxxx |           65 |           65 |           65 |           65 |xxxxxxxxxxxxx |xxxxxxxxxxxxx |xxxxxxxxxxxxx |           65 |           65 |           65 |           65 |xxxxxxxxxxxxx |xxxxxxxxxxxxx |xxxxxxxxxxxxx |          110 |          110 |          110 |          110 |xxxxxxxxxxxxx |xxxxxxxxxxxxx |xxxxxxxxxxxxx |          122 |          122 |          122 |          122 |
bpred_2lev.ras_hits.PP               xxxxxxxxxxxxx |xxxxxxxxxxxxx |xxxxxxxxxxxxx |           65 |           65 |           65 |           65 |xxxxxxxxxxxxx |xxxxxxxxxxxxx |xxxxxxxxxxxxx |           65 |           65 |           65 |           65 |xxxxxxxxxxxxx |xxxxxxxxxxxxx |xxxxxxxxxxxxx |           65 |           65 |           65 |           65 |xxxxxxxxxxxxx |xxxxxxxxxxxxx |xxxxxxxxxxxxx |           65 |           65 |           65 |           65 |xxxxxxxxxxxxx |xxxxxxxxxxxxx |xxxxxxxxxxxxx |           65 |           65 |           65 |           65 |xxxxxxxxxxxxx |xxxxxxxxxxxxx |xxxxxxxxxxxxx |           65 |           65 |           65 |           65 |xxxxxxxxxxxxx |xxxxxxxxxxxxx |xxxxxxxxxxxxx |           65 |           65 |           65 |           65 |xxxxxxxxxxxxx |xxxxxxxxxxxxx |xxxxxxxxxxxxx |           65 |           65 |           65 |           65 |xxxxxxxxxxxxx |xxxxxxxxxxxxx |xxxxxxxxxxxxx |           65 |           65 |           65 |           65 |xxxxxxxxxxxxx |xxxxxxxxxxxxx |xxxxxxxxxxxxx |          110 |          110 |          110 |          110 |xxxxxxxxxxxxx |xxxxxxxxxxxxx |xxxxxxxxxxxxx |          122 |          122 |          122 |          122 |
bpred_2lev.ras_rate.PP               xxxxxxxxxxxxx |xxxxxxxxxxxxx |xxxxxxxxxxxxx |       1.0000 |       1.0000 |       1.0000 |       1.0000 |xxxxxxxxxxxxx |xxxxxxxxxxxxx |xxxxxxxxxxxxx |       1.0000 |       1.0000 |       1.0000 |       1.0000 |xxxxxxxxxxxxx |xxxxxxxxxxxxx |xxxxxxxxxxxxx |       1.0000 |       1.0000 |       1.0000 |       1.0000 |xxxxxxxxxxxxx |xxxxxxxxxxxxx |xxxxxxxxxxxxx |       1.0000 |       1.0000 |       1.0000 |       1.0000 |xxxxxxxxxxxxx |xxxxxxxxxxxxx |xxxxxxxxxxxxx |       1.0000 |       1.0000 |       1.0000 |       1.0000 |xxxxxxxxxxxxx |xxxxxxxxxxxxx |xxxxxxxxxxxxx |       1.0000 |       1.0000 |       1.0000 |       1.0000 |xxxxxxxxxxxxx |xxxxxxxxxxxxx |xxxxxxxxxxxxx |       1.0000 |       1.0000 |       1.0000 |       1.0000 |xxxxxxxxxxxxx |xxxxxxxxxxxxx |xxxxxxxxxxxxx |       1.0000 |       1.0000 |       1.0000 |       1.0000 |xxxxxxxxxxxxx |xxxxxxxxxxxxx |xxxxxxxxxxxxx |       1.0000 |       1.0000 |       1.0000 |       1.0000 |xxxxxxxxxxxxx |xxxxxxxxxxxxx |xxxxxxxxxxxxx |       1.0000 |       1.0000 |       1.0000 |       1.0000 |xxxxxxxxxxxxx |xxxxxxxxxxxxx |xxxxxxxxxxxxx |       1.0000 |       1.0000 |       1.0000 |       1.0000 |

Command list: 
	sslittle-na-sstrix-gcc -Wall -O3 -funroll-loops -finline-functions  -DRANDOM_SIZE=4096 -DOFFSET=7 -DSORT=multi_quicksort_seq sorts/multi_quicksort_seq269406081.c simpleMain.c -o multi_quicksort_seq719723790
	sim-cache -cache:dl1 dl1:256:32:1:l -cache:dl2 dl2:131072:32:1:l -cache:il1 il1:256:32:1:l -cache:il2 dl2 multi_quicksort_seq719723790
	sim-cache -cache:dl1 dl1:256:32:1:l -cache:dl2 dl2:65536:32:1:l -cache:il1 il1:256:32:1:l -cache:il2 dl2 multi_quicksort_seq719723790
	sim-cache -cache:dl1 dl1:1:32:256:l -cache:dl2 dl2:1:32:131072:l -cache:il1 il1:1:32:256:l -cache:il2 dl2 multi_quicksort_seq719723790
	sim-cache -cache:dl1 dl1:1:32:256:l -cache:dl2 dl2:1:32:65536:l -cache:il1 il1:1:32:256:l -cache:il2 dl2 multi_quicksort_seq719723790
	sim-bpred -bpred bimod -bpred:bimod 512 multi_quicksort_seq719723790
	sim-bpred -bpred bimod -bpred:bimod 1024 multi_quicksort_seq719723790
	sim-bpred -bpred bimod -bpred:bimod 2048 multi_quicksort_seq719723790
	sim-bpred -bpred 2lev -bpred:2lev 1 512 10 1 multi_quicksort_seq719723790
	sim-bpred -bpred 2lev -bpred:2lev 1 1024 10 1 multi_quicksort_seq719723790
	sim-bpred -bpred 2lev -bpred:2lev 1 2048 10 1 multi_quicksort_seq719723790
	sim-bpred -bpred 2lev -bpred:2lev 1 4096 10 1 multi_quicksort_seq719723790
	sslittle-na-sstrix-gcc -Wall -O3 -funroll-loops -finline-functions  -DRANDOM_SIZE=8192 -DOFFSET=7 -DSORT=multi_quicksort_seq sorts/multi_quicksort_seq269406081.c simpleMain.c -o multi_quicksort_seq719723790
	sim-cache -cache:dl1 dl1:256:32:1:l -cache:dl2 dl2:131072:32:1:l -cache:il1 il1:256:32:1:l -cache:il2 dl2 multi_quicksort_seq719723790
	sim-cache -cache:dl1 dl1:256:32:1:l -cache:dl2 dl2:65536:32:1:l -cache:il1 il1:256:32:1:l -cache:il2 dl2 multi_quicksort_seq719723790
	sim-cache -cache:dl1 dl1:1:32:256:l -cache:dl2 dl2:1:32:131072:l -cache:il1 il1:1:32:256:l -cache:il2 dl2 multi_quicksort_seq719723790
	sim-cache -cache:dl1 dl1:1:32:256:l -cache:dl2 dl2:1:32:65536:l -cache:il1 il1:1:32:256:l -cache:il2 dl2 multi_quicksort_seq719723790
	sim-bpred -bpred bimod -bpred:bimod 512 multi_quicksort_seq719723790
	sim-bpred -bpred bimod -bpred:bimod 1024 multi_quicksort_seq719723790
	sim-bpred -bpred bimod -bpred:bimod 2048 multi_quicksort_seq719723790
	sim-bpred -bpred 2lev -bpred:2lev 1 512 10 1 multi_quicksort_seq719723790
	sim-bpred -bpred 2lev -bpred:2lev 1 1024 10 1 multi_quicksort_seq719723790
	sim-bpred -bpred 2lev -bpred:2lev 1 2048 10 1 multi_quicksort_seq719723790
	sim-bpred -bpred 2lev -bpred:2lev 1 4096 10 1 multi_quicksort_seq719723790
	sslittle-na-sstrix-gcc -Wall -O3 -funroll-loops -finline-functions  -DRANDOM_SIZE=16384 -DOFFSET=7 -DSORT=multi_quicksort_seq sorts/multi_quicksort_seq269406081.c simpleMain.c -o multi_quicksort_seq719723790
	sim-cache -cache:dl1 dl1:256:32:1:l -cache:dl2 dl2:131072:32:1:l -cache:il1 il1:256:32:1:l -cache:il2 dl2 multi_quicksort_seq719723790
	sim-cache -cache:dl1 dl1:256:32:1:l -cache:dl2 dl2:65536:32:1:l -cache:il1 il1:256:32:1:l -cache:il2 dl2 multi_quicksort_seq719723790
	sim-cache -cache:dl1 dl1:1:32:256:l -cache:dl2 dl2:1:32:131072:l -cache:il1 il1:1:32:256:l -cache:il2 dl2 multi_quicksort_seq719723790
	sim-cache -cache:dl1 dl1:1:32:256:l -cache:dl2 dl2:1:32:65536:l -cache:il1 il1:1:32:256:l -cache:il2 dl2 multi_quicksort_seq719723790
	sim-bpred -bpred bimod -bpred:bimod 512 multi_quicksort_seq719723790
	sim-bpred -bpred bimod -bpred:bimod 1024 multi_quicksort_seq719723790
	sim-bpred -bpred bimod -bpred:bimod 2048 multi_quicksort_seq719723790
	sim-bpred -bpred 2lev -bpred:2lev 1 512 10 1 multi_quicksort_seq719723790
	sim-bpred -bpred 2lev -bpred:2lev 1 1024 10 1 multi_quicksort_seq719723790
	sim-bpred -bpred 2lev -bpred:2lev 1 2048 10 1 multi_quicksort_seq719723790
	sim-bpred -bpred 2lev -bpred:2lev 1 4096 10 1 multi_quicksort_seq719723790
	sslittle-na-sstrix-gcc -Wall -O3 -funroll-loops -finline-functions  -DRANDOM_SIZE=32768 -DOFFSET=7 -DSORT=multi_quicksort_seq sorts/multi_quicksort_seq269406081.c simpleMain.c -o multi_quicksort_seq719723790
	sim-cache -cache:dl1 dl1:256:32:1:l -cache:dl2 dl2:131072:32:1:l -cache:il1 il1:256:32:1:l -cache:il2 dl2 multi_quicksort_seq719723790
	sim-cache -cache:dl1 dl1:256:32:1:l -cache:dl2 dl2:65536:32:1:l -cache:il1 il1:256:32:1:l -cache:il2 dl2 multi_quicksort_seq719723790
	sim-cache -cache:dl1 dl1:1:32:256:l -cache:dl2 dl2:1:32:131072:l -cache:il1 il1:1:32:256:l -cache:il2 dl2 multi_quicksort_seq719723790
	sim-cache -cache:dl1 dl1:1:32:256:l -cache:dl2 dl2:1:32:65536:l -cache:il1 il1:1:32:256:l -cache:il2 dl2 multi_quicksort_seq719723790
	sim-bpred -bpred bimod -bpred:bimod 512 multi_quicksort_seq719723790
	sim-bpred -bpred bimod -bpred:bimod 1024 multi_quicksort_seq719723790
	sim-bpred -bpred bimod -bpred:bimod 2048 multi_quicksort_seq719723790
	sim-bpred -bpred 2lev -bpred:2lev 1 512 10 1 multi_quicksort_seq719723790
	sim-bpred -bpred 2lev -bpred:2lev 1 1024 10 1 multi_quicksort_seq719723790
	sim-bpred -bpred 2lev -bpred:2lev 1 2048 10 1 multi_quicksort_seq719723790
	sim-bpred -bpred 2lev -bpred:2lev 1 4096 10 1 multi_quicksort_seq719723790
	sslittle-na-sstrix-gcc -Wall -O3 -funroll-loops -finline-functions  -DRANDOM_SIZE=65536 -DOFFSET=7 -DSORT=multi_quicksort_seq sorts/multi_quicksort_seq269406081.c simpleMain.c -o multi_quicksort_seq719723790
	sim-cache -cache:dl1 dl1:256:32:1:l -cache:dl2 dl2:131072:32:1:l -cache:il1 il1:256:32:1:l -cache:il2 dl2 multi_quicksort_seq719723790
	sim-cache -cache:dl1 dl1:256:32:1:l -cache:dl2 dl2:65536:32:1:l -cache:il1 il1:256:32:1:l -cache:il2 dl2 multi_quicksort_seq719723790
	sim-cache -cache:dl1 dl1:1:32:256:l -cache:dl2 dl2:1:32:131072:l -cache:il1 il1:1:32:256:l -cache:il2 dl2 multi_quicksort_seq719723790
	sim-cache -cache:dl1 dl1:1:32:256:l -cache:dl2 dl2:1:32:65536:l -cache:il1 il1:1:32:256:l -cache:il2 dl2 multi_quicksort_seq719723790
	sim-bpred -bpred bimod -bpred:bimod 512 multi_quicksort_seq719723790
	sim-bpred -bpred bimod -bpred:bimod 1024 multi_quicksort_seq719723790
	sim-bpred -bpred bimod -bpred:bimod 2048 multi_quicksort_seq719723790
	sim-bpred -bpred 2lev -bpred:2lev 1 512 10 1 multi_quicksort_seq719723790
	sim-bpred -bpred 2lev -bpred:2lev 1 1024 10 1 multi_quicksort_seq719723790
	sim-bpred -bpred 2lev -bpred:2lev 1 2048 10 1 multi_quicksort_seq719723790
	sim-bpred -bpred 2lev -bpred:2lev 1 4096 10 1 multi_quicksort_seq719723790
	sslittle-na-sstrix-gcc -Wall -O3 -funroll-loops -finline-functions  -DRANDOM_SIZE=131072 -DOFFSET=7 -DSORT=multi_quicksort_seq sorts/multi_quicksort_seq269406081.c simpleMain.c -o multi_quicksort_seq719723790
	sim-cache -cache:dl1 dl1:256:32:1:l -cache:dl2 dl2:131072:32:1:l -cache:il1 il1:256:32:1:l -cache:il2 dl2 multi_quicksort_seq719723790
	sim-cache -cache:dl1 dl1:256:32:1:l -cache:dl2 dl2:65536:32:1:l -cache:il1 il1:256:32:1:l -cache:il2 dl2 multi_quicksort_seq719723790
	sim-cache -cache:dl1 dl1:1:32:256:l -cache:dl2 dl2:1:32:131072:l -cache:il1 il1:1:32:256:l -cache:il2 dl2 multi_quicksort_seq719723790
	sim-cache -cache:dl1 dl1:1:32:256:l -cache:dl2 dl2:1:32:65536:l -cache:il1 il1:1:32:256:l -cache:il2 dl2 multi_quicksort_seq719723790
	sim-bpred -bpred bimod -bpred:bimod 512 multi_quicksort_seq719723790
	sim-bpred -bpred bimod -bpred:bimod 1024 multi_quicksort_seq719723790
	sim-bpred -bpred bimod -bpred:bimod 2048 multi_quicksort_seq719723790
	sim-bpred -bpred 2lev -bpred:2lev 1 512 10 1 multi_quicksort_seq719723790
	sim-bpred -bpred 2lev -bpred:2lev 1 1024 10 1 multi_quicksort_seq719723790
	sim-bpred -bpred 2lev -bpred:2lev 1 2048 10 1 multi_quicksort_seq719723790
	sim-bpred -bpred 2lev -bpred:2lev 1 4096 10 1 multi_quicksort_seq719723790
	sslittle-na-sstrix-gcc -Wall -O3 -funroll-loops -finline-functions  -DRANDOM_SIZE=262144 -DOFFSET=7 -DSORT=multi_quicksort_seq sorts/multi_quicksort_seq269406081.c simpleMain.c -o multi_quicksort_seq719723790
	sim-cache -cache:dl1 dl1:256:32:1:l -cache:dl2 dl2:131072:32:1:l -cache:il1 il1:256:32:1:l -cache:il2 dl2 multi_quicksort_seq719723790
	sim-cache -cache:dl1 dl1:256:32:1:l -cache:dl2 dl2:65536:32:1:l -cache:il1 il1:256:32:1:l -cache:il2 dl2 multi_quicksort_seq719723790
	sim-cache -cache:dl1 dl1:1:32:256:l -cache:dl2 dl2:1:32:131072:l -cache:il1 il1:1:32:256:l -cache:il2 dl2 multi_quicksort_seq719723790
	sim-cache -cache:dl1 dl1:1:32:256:l -cache:dl2 dl2:1:32:65536:l -cache:il1 il1:1:32:256:l -cache:il2 dl2 multi_quicksort_seq719723790
	sim-bpred -bpred bimod -bpred:bimod 512 multi_quicksort_seq719723790
	sim-bpred -bpred bimod -bpred:bimod 1024 multi_quicksort_seq719723790
	sim-bpred -bpred bimod -bpred:bimod 2048 multi_quicksort_seq719723790
	sim-bpred -bpred 2lev -bpred:2lev 1 512 10 1 multi_quicksort_seq719723790
	sim-bpred -bpred 2lev -bpred:2lev 1 1024 10 1 multi_quicksort_seq719723790
	sim-bpred -bpred 2lev -bpred:2lev 1 2048 10 1 multi_quicksort_seq719723790
	sim-bpred -bpred 2lev -bpred:2lev 1 4096 10 1 multi_quicksort_seq719723790
	sslittle-na-sstrix-gcc -Wall -O3 -funroll-loops -finline-functions  -DRANDOM_SIZE=524288 -DOFFSET=7 -DSORT=multi_quicksort_seq sorts/multi_quicksort_seq269406081.c simpleMain.c -o multi_quicksort_seq719723790
	sim-cache -cache:dl1 dl1:256:32:1:l -cache:dl2 dl2:131072:32:1:l -cache:il1 il1:256:32:1:l -cache:il2 dl2 multi_quicksort_seq719723790
	sim-cache -cache:dl1 dl1:256:32:1:l -cache:dl2 dl2:65536:32:1:l -cache:il1 il1:256:32:1:l -cache:il2 dl2 multi_quicksort_seq719723790
	sim-cache -cache:dl1 dl1:1:32:256:l -cache:dl2 dl2:1:32:131072:l -cache:il1 il1:1:32:256:l -cache:il2 dl2 multi_quicksort_seq719723790
	sim-cache -cache:dl1 dl1:1:32:256:l -cache:dl2 dl2:1:32:65536:l -cache:il1 il1:1:32:256:l -cache:il2 dl2 multi_quicksort_seq719723790
	sim-bpred -bpred bimod -bpred:bimod 512 multi_quicksort_seq719723790
	sim-bpred -bpred bimod -bpred:bimod 1024 multi_quicksort_seq719723790
	sim-bpred -bpred bimod -bpred:bimod 2048 multi_quicksort_seq719723790
	sim-bpred -bpred 2lev -bpred:2lev 1 512 10 1 multi_quicksort_seq719723790
	sim-bpred -bpred 2lev -bpred:2lev 1 1024 10 1 multi_quicksort_seq719723790
	sim-bpred -bpred 2lev -bpred:2lev 1 2048 10 1 multi_quicksort_seq719723790
	sim-bpred -bpred 2lev -bpred:2lev 1 4096 10 1 multi_quicksort_seq719723790
	sslittle-na-sstrix-gcc -Wall -O3 -funroll-loops -finline-functions  -DRANDOM_SIZE=1048576 -DOFFSET=7 -DSORT=multi_quicksort_seq sorts/multi_quicksort_seq269406081.c simpleMain.c -o multi_quicksort_seq719723790
	sim-cache -cache:dl1 dl1:256:32:1:l -cache:dl2 dl2:131072:32:1:l -cache:il1 il1:256:32:1:l -cache:il2 dl2 multi_quicksort_seq719723790
	sim-cache -cache:dl1 dl1:256:32:1:l -cache:dl2 dl2:65536:32:1:l -cache:il1 il1:256:32:1:l -cache:il2 dl2 multi_quicksort_seq719723790
	sim-cache -cache:dl1 dl1:1:32:256:l -cache:dl2 dl2:1:32:131072:l -cache:il1 il1:1:32:256:l -cache:il2 dl2 multi_quicksort_seq719723790
	sim-cache -cache:dl1 dl1:1:32:256:l -cache:dl2 dl2:1:32:65536:l -cache:il1 il1:1:32:256:l -cache:il2 dl2 multi_quicksort_seq719723790
	sim-bpred -bpred bimod -bpred:bimod 512 multi_quicksort_seq719723790
	sim-bpred -bpred bimod -bpred:bimod 1024 multi_quicksort_seq719723790
	sim-bpred -bpred bimod -bpred:bimod 2048 multi_quicksort_seq719723790
	sim-bpred -bpred 2lev -bpred:2lev 1 512 10 1 multi_quicksort_seq719723790
	sim-bpred -bpred 2lev -bpred:2lev 1 1024 10 1 multi_quicksort_seq719723790
	sim-bpred -bpred 2lev -bpred:2lev 1 2048 10 1 multi_quicksort_seq719723790
	sim-bpred -bpred 2lev -bpred:2lev 1 4096 10 1 multi_quicksort_seq719723790
	sslittle-na-sstrix-gcc -Wall -O3 -funroll-loops -finline-functions  -DRANDOM_SIZE=2097152 -DOFFSET=7 -DSORT=multi_quicksort_seq sorts/multi_quicksort_seq269406081.c simpleMain.c -o multi_quicksort_seq719723790
	sim-cache -cache:dl1 dl1:256:32:1:l -cache:dl2 dl2:131072:32:1:l -cache:il1 il1:256:32:1:l -cache:il2 dl2 multi_quicksort_seq719723790
	sim-cache -cache:dl1 dl1:256:32:1:l -cache:dl2 dl2:65536:32:1:l -cache:il1 il1:256:32:1:l -cache:il2 dl2 multi_quicksort_seq719723790
	sim-cache -cache:dl1 dl1:1:32:256:l -cache:dl2 dl2:1:32:131072:l -cache:il1 il1:1:32:256:l -cache:il2 dl2 multi_quicksort_seq719723790
	sim-cache -cache:dl1 dl1:1:32:256:l -cache:dl2 dl2:1:32:65536:l -cache:il1 il1:1:32:256:l -cache:il2 dl2 multi_quicksort_seq719723790
	sim-bpred -bpred bimod -bpred:bimod 512 multi_quicksort_seq719723790
	sim-bpred -bpred bimod -bpred:bimod 1024 multi_quicksort_seq719723790
	sim-bpred -bpred bimod -bpred:bimod 2048 multi_quicksort_seq719723790
	sim-bpred -bpred 2lev -bpred:2lev 1 512 10 1 multi_quicksort_seq719723790
	sim-bpred -bpred 2lev -bpred:2lev 1 1024 10 1 multi_quicksort_seq719723790
	sim-bpred -bpred 2lev -bpred:2lev 1 2048 10 1 multi_quicksort_seq719723790
	sim-bpred -bpred 2lev -bpred:2lev 1 4096 10 1 multi_quicksort_seq719723790
	sslittle-na-sstrix-gcc -Wall -O3 -funroll-loops -finline-functions  -DRANDOM_SIZE=4194304 -DOFFSET=7 -DSORT=multi_quicksort_seq sorts/multi_quicksort_seq269406081.c simpleMain.c -o multi_quicksort_seq719723790
	sim-cache -cache:dl1 dl1:256:32:1:l -cache:dl2 dl2:131072:32:1:l -cache:il1 il1:256:32:1:l -cache:il2 dl2 multi_quicksort_seq719723790
	sim-cache -cache:dl1 dl1:256:32:1:l -cache:dl2 dl2:65536:32:1:l -cache:il1 il1:256:32:1:l -cache:il2 dl2 multi_quicksort_seq719723790
	sim-cache -cache:dl1 dl1:1:32:256:l -cache:dl2 dl2:1:32:131072:l -cache:il1 il1:1:32:256:l -cache:il2 dl2 multi_quicksort_seq719723790
	sim-cache -cache:dl1 dl1:1:32:256:l -cache:dl2 dl2:1:32:65536:l -cache:il1 il1:1:32:256:l -cache:il2 dl2 multi_quicksort_seq719723790
	sim-bpred -bpred bimod -bpred:bimod 512 multi_quicksort_seq719723790
	sim-bpred -bpred bimod -bpred:bimod 1024 multi_quicksort_seq719723790
	sim-bpred -bpred bimod -bpred:bimod 2048 multi_quicksort_seq719723790
	sim-bpred -bpred 2lev -bpred:2lev 1 512 10 1 multi_quicksort_seq719723790
	sim-bpred -bpred 2lev -bpred:2lev 1 1024 10 1 multi_quicksort_seq719723790
	sim-bpred -bpred 2lev -bpred:2lev 1 2048 10 1 multi_quicksort_seq719723790
	sim-bpred -bpred 2lev -bpred:2lev 1 4096 10 1 multi_quicksort_seq719723790
