Wed Jul 13 02:16:15 2005
Run as: "./do_simple -c random.org5 -o 5 multi_mergesort"
-------------------------------------------------------------------------------------------------
sim-cache                                     4096 |         4096 |         4096 |         4096 |         8192 |         8192 |         8192 |         8192 |        16384 |        16384 |        16384 |        16384 |        32768 |        32768 |        32768 |        32768 |        65536 |        65536 |        65536 |        65536 |       131072 |       131072 |       131072 |       131072 |       262144 |       262144 |       262144 |       262144 |       524288 |       524288 |       524288 |       524288 |      1048576 |      1048576 |      1048576 |      1048576 |      2097152 |      2097152 |      2097152 |      2097152 |      4194304 |      4194304 |      4194304 |      4194304 |
-cache:dl1 dl1:256:32:1:l -cache:dl2 dl2:131072:32:1:l -cache:il1 il1:256:32:1:l -cache:il2 dl2
-cache:dl1 dl1:256:32:1:l -cache:dl2 dl2:65536:32:1:l -cache:il1 il1:256:32:1:l -cache:il2 dl2
-cache:dl1 dl1:1:32:256:l -cache:dl2 dl2:1:32:131072:l -cache:il1 il1:1:32:256:l -cache:il2 dl2
-cache:dl1 dl1:1:32:256:l -cache:dl2 dl2:1:32:65536:l -cache:il1 il1:1:32:256:l -cache:il2 dl2
-------------------------------------------------------------------------------------------------
sim_num_insn                                857123 |       857123 |       857123 |       857123 |      1746597 |      1746597 |      1746597 |      1746597 |      3956796 |      3956796 |      3956796 |      3956796 |      8063573 |      8063573 |      8063573 |      8063573 |     17983383 |     17983383 |     17983383 |     17983383 |     36564936 |     36564936 |     36564936 |     36564936 |     77457249 |     77457249 |     77457249 |     77457249 |    223365922 |    223365922 |    223365922 |    223365922 |    473172103 |    473172103 |    473172103 |    473172103 |   1035661466 |   1035661466 |   1035661466 |   1035661466 |   2186706021 |   2186706021 |   2186706021 |   2186706021 |
sim_num_refs                                228394 |       228394 |       228394 |       228394 |       471173 |       471173 |       471173 |       471173 |      1050974 |      1050974 |      1050974 |      1050974 |      2171172 |      2171172 |      2171172 |      2171172 |      4784866 |      4784866 |      4784866 |      4784866 |      9853602 |      9853602 |      9853602 |      9853602 |     20884297 |     20884297 |     20884297 |     20884297 |     60936564 |     60936564 |     60936564 |     60936564 |    130151626 |    130151626 |    130151626 |    130151626 |    283174669 |    283174669 |    283174669 |    283174669 |    604314836 |    604314836 |    604314836 |    604314836 |
sim_elapsed_time                                 1 |            1 |           11 |            5 |            1 |            1 |           16 |            8 |            1 |            1 |           27 |           14 |            3 |            2 |           49 |           26 |            5 |            5 |           91 |           46 |           10 |           11 |          167 |           77 |           21 |           21 |          287 |          111 |           63 |           63 |          414 |          153 |          132 |          132 |          487 |          227 |          289 |          289 |          654 |          394 |          610 |          609 |          995 |          737 |
sim_inst_rate                          857123.0000 |  857123.0000 |   77920.2727 |  171424.6000 | 1746597.0000 | 1746597.0000 |  109162.3125 |  218324.6250 | 3956796.0000 | 3956796.0000 |  146548.0000 |  282628.2857 | 2687857.6667 | 4031786.5000 |  164562.7143 |  310137.4231 | 3596676.6000 | 3596676.6000 |  197619.5934 |  390943.1087 | 3656493.6000 | 3324085.0909 |  218951.7126 |  474869.2987 | 3688440.4286 | 3688440.4286 |  269885.8850 |  697813.0541 | 3545490.8254 | 3545490.8254 |  539531.2126 | 1459907.9869 | 3584637.1439 | 3584637.1439 |  971605.9610 | 2084458.6035 | 3583603.6886 | 3583603.6886 | 1583580.2232 | 2628582.4010 | 3584763.9689 | 3590650.2808 | 2197694.4935 | 2967036.6635 |
il1.accesses                                857123 |       857123 |       857123 |       857123 |      1746597 |      1746597 |      1746597 |      1746597 |      3956796 |      3956796 |      3956796 |      3956796 |      8063573 |      8063573 |      8063573 |      8063573 |     17983383 |     17983383 |     17983383 |     17983383 |     36564936 |     36564936 |     36564936 |     36564936 |     77457249 |     77457249 |     77457249 |     77457249 |    223365922 |    223365922 |    223365922 |    223365922 |    473172103 |    473172103 |    473172103 |    473172103 |   1035661466 |   1035661466 |   1035661466 |   1035661466 |   2186706021 |   2186706021 |   2186706021 |   2186706021 |
il1.hits                                    856439 |       856439 |       856544 |       856544 |      1745868 |      1745868 |      1745997 |      1745997 |      3956052 |      3956052 |      3956224 |      3956224 |      8062697 |      8062697 |      8062970 |      8062970 |     17982335 |     17982335 |     17982798 |     17982798 |     36563482 |     36563482 |     36564332 |     36564332 |     77455537 |     77455537 |     77456648 |     77456648 |    222054188 |    222054188 |    223365031 |    223365031 |    470549597 |    470549597 |    473171166 |    473171166 |   1030417529 |   1030417529 |   1035660547 |   1035660547 |   2176219174 |   2176219174 |   2186705084 |   2186705084 |
il1.misses                                     684 |          684 |          579 |          579 |          729 |          729 |          600 |          600 |          744 |          744 |          572 |          572 |          876 |          876 |          603 |          603 |         1048 |         1048 |          585 |          585 |         1454 |         1454 |          604 |          604 |         1712 |         1712 |          601 |          601 |      1311734 |      1311734 |          891 |          891 |      2622506 |      2622506 |          937 |          937 |      5243937 |      5243937 |          919 |          919 |     10486847 |     10486847 |          937 |          937 |
il1.replacements                               450 |          450 |          323 |          323 |          493 |          493 |          344 |          344 |          509 |          509 |          316 |          316 |          640 |          640 |          347 |          347 |          813 |          813 |          329 |          329 |         1218 |         1218 |          348 |          348 |         1475 |         1475 |          345 |          345 |      1311478 |      1311478 |          635 |          635 |      2622250 |      2622250 |          681 |          681 |      5243681 |      5243681 |          663 |          663 |     10486591 |     10486591 |          681 |          681 |
il1.writebacks                                   0 |            0 |            0 |            0 |            0 |            0 |            0 |            0 |            0 |            0 |            0 |            0 |            0 |            0 |            0 |            0 |            0 |            0 |            0 |            0 |            0 |            0 |            0 |            0 |            0 |            0 |            0 |            0 |            0 |            0 |            0 |            0 |            0 |            0 |            0 |            0 |            0 |            0 |            0 |            0 |            0 |            0 |            0 |            0 |
il1.invalidations                                0 |            0 |            0 |            0 |            0 |            0 |            0 |            0 |            0 |            0 |            0 |            0 |            0 |            0 |            0 |            0 |            0 |            0 |            0 |            0 |            0 |            0 |            0 |            0 |            0 |            0 |            0 |            0 |            0 |            0 |            0 |            0 |            0 |            0 |            0 |            0 |            0 |            0 |            0 |            0 |            0 |            0 |            0 |            0 |
il1.miss_rate                               0.0008 |       0.0008 |       0.0007 |       0.0007 |       0.0004 |       0.0004 |       0.0003 |       0.0003 |       0.0002 |       0.0002 |       0.0001 |       0.0001 |       0.0001 |       0.0001 |       0.0001 |       0.0001 |       0.0001 |       0.0001 |       0.0000 |       0.0000 |       0.0000 |       0.0000 |       0.0000 |       0.0000 |       0.0000 |       0.0000 |       0.0000 |       0.0000 |       0.0059 |       0.0059 |       0.0000 |       0.0000 |       0.0055 |       0.0055 |       0.0000 |       0.0000 |       0.0051 |       0.0051 |       0.0000 |       0.0000 |       0.0048 |       0.0048 |       0.0000 |       0.0000 |
il1.repl_rate                               0.0005 |       0.0005 |       0.0004 |       0.0004 |       0.0003 |       0.0003 |       0.0002 |       0.0002 |       0.0001 |       0.0001 |       0.0001 |       0.0001 |       0.0001 |       0.0001 |       0.0000 |       0.0000 |       0.0000 |       0.0000 |       0.0000 |       0.0000 |       0.0000 |       0.0000 |       0.0000 |       0.0000 |       0.0000 |       0.0000 |       0.0000 |       0.0000 |       0.0059 |       0.0059 |       0.0000 |       0.0000 |       0.0055 |       0.0055 |       0.0000 |       0.0000 |       0.0051 |       0.0051 |       0.0000 |       0.0000 |       0.0048 |       0.0048 |       0.0000 |       0.0000 |
il1.wb_rate                                 0.0000 |       0.0000 |       0.0000 |       0.0000 |       0.0000 |       0.0000 |       0.0000 |       0.0000 |       0.0000 |       0.0000 |       0.0000 |       0.0000 |       0.0000 |       0.0000 |       0.0000 |       0.0000 |       0.0000 |       0.0000 |       0.0000 |       0.0000 |       0.0000 |       0.0000 |       0.0000 |       0.0000 |       0.0000 |       0.0000 |       0.0000 |       0.0000 |       0.0000 |       0.0000 |       0.0000 |       0.0000 |       0.0000 |       0.0000 |       0.0000 |       0.0000 |       0.0000 |       0.0000 |       0.0000 |       0.0000 |       0.0000 |       0.0000 |       0.0000 |       0.0000 |
il1.inv_rate                                0.0000 |       0.0000 |       0.0000 |       0.0000 |       0.0000 |       0.0000 |       0.0000 |       0.0000 |       0.0000 |       0.0000 |       0.0000 |       0.0000 |       0.0000 |       0.0000 |       0.0000 |       0.0000 |       0.0000 |       0.0000 |       0.0000 |       0.0000 |       0.0000 |       0.0000 |       0.0000 |       0.0000 |       0.0000 |       0.0000 |       0.0000 |       0.0000 |       0.0000 |       0.0000 |       0.0000 |       0.0000 |       0.0000 |       0.0000 |       0.0000 |       0.0000 |       0.0000 |       0.0000 |       0.0000 |       0.0000 |       0.0000 |       0.0000 |       0.0000 |       0.0000 |
dl1.accesses                                244860 |       244860 |       244860 |       244860 |       504023 |       504023 |       504023 |       504023 |      1116592 |      1116592 |      1116592 |      1116592 |      2302326 |      2302326 |      2302326 |      2302326 |      5047092 |      5047092 |      5047092 |      5047092 |     10377972 |     10377972 |     10377972 |     10377972 |     21932955 |     21932955 |     21932955 |     21932955 |     63033798 |     63033798 |     63033798 |     63033798 |    134346012 |    134346012 |    134346012 |    134346012 |    291563359 |    291563359 |    291563359 |    291563359 |    621092134 |    621092134 |    621092134 |    621092134 |
dl1.hits                                    217205 |       217205 |       237919 |       237919 |       454440 |       454440 |       489830 |       489830 |       997980 |       997980 |      1082039 |      1082039 |      2087959 |      2087959 |      2230530 |      2230530 |      4537227 |      4537227 |      4877503 |      4877503 |      9448179 |      9448179 |     10026644 |     10026644 |     19999739 |     19999739 |     21165262 |     21165262 |     58310688 |     58310688 |     61285218 |     61285218 |    125870041 |    125870041 |    131013036 |    131013036 |    272630837 |    272630837 |    284575257 |    284575257 |    587123180 |    587123180 |    607763939 |    607763939 |
dl1.misses                                   27655 |        27655 |         6941 |         6941 |        49583 |        49583 |        14193 |        14193 |       118612 |       118612 |        34553 |        34553 |       214367 |       214367 |        71796 |        71796 |       509865 |       509865 |       169589 |       169589 |       929793 |       929793 |       351328 |       351328 |      1933216 |      1933216 |       767693 |       767693 |      4723110 |      4723110 |      1748580 |      1748580 |      8475971 |      8475971 |      3332976 |      3332976 |     18932522 |     18932522 |      6988102 |      6988102 |     33968954 |     33968954 |     13328195 |     13328195 |
dl1.replacements                             27399 |        27399 |         6685 |         6685 |        49327 |        49327 |        13937 |        13937 |       118356 |       118356 |        34297 |        34297 |       214111 |       214111 |        71540 |        71540 |       509609 |       509609 |       169333 |       169333 |       929537 |       929537 |       351072 |       351072 |      1932960 |      1932960 |       767437 |       767437 |      4722854 |      4722854 |      1748324 |      1748324 |      8475715 |      8475715 |      3332720 |      3332720 |     18932266 |     18932266 |      6987846 |      6987846 |     33968698 |     33968698 |     13327939 |     13327939 |
dl1.writebacks                               14868 |        14868 |         5045 |         5045 |        26932 |        26932 |         9769 |         9769 |        63301 |        63301 |        23369 |        23369 |       115562 |       115562 |        46392 |        46392 |       270226 |       270226 |       108931 |       108931 |       496366 |       496366 |       217393 |       217393 |      1027313 |      1027313 |       467199 |       467199 |      2548494 |      2548494 |      1067426 |      1067426 |      4622609 |      4622609 |      1999769 |      1999769 |     10227436 |     10227436 |      4265817 |      4265817 |     18561573 |     18561573 |      7998036 |      7998036 |
dl1.invalidations                                0 |            0 |            0 |            0 |            0 |            0 |            0 |            0 |            0 |            0 |            0 |            0 |            0 |            0 |            0 |            0 |            0 |            0 |            0 |            0 |            0 |            0 |            0 |            0 |            0 |            0 |            0 |            0 |            0 |            0 |            0 |            0 |            0 |            0 |            0 |            0 |            0 |            0 |            0 |            0 |            0 |            0 |            0 |            0 |
dl1.miss_rate                               0.1129 |       0.1129 |       0.0283 |       0.0283 |       0.0984 |       0.0984 |       0.0282 |       0.0282 |       0.1062 |       0.1062 |       0.0309 |       0.0309 |       0.0931 |       0.0931 |       0.0312 |       0.0312 |       0.1010 |       0.1010 |       0.0336 |       0.0336 |       0.0896 |       0.0896 |       0.0339 |       0.0339 |       0.0881 |       0.0881 |       0.0350 |       0.0350 |       0.0749 |       0.0749 |       0.0277 |       0.0277 |       0.0631 |       0.0631 |       0.0248 |       0.0248 |       0.0649 |       0.0649 |       0.0240 |       0.0240 |       0.0547 |       0.0547 |       0.0215 |       0.0215 |
dl1.repl_rate                               0.1119 |       0.1119 |       0.0273 |       0.0273 |       0.0979 |       0.0979 |       0.0277 |       0.0277 |       0.1060 |       0.1060 |       0.0307 |       0.0307 |       0.0930 |       0.0930 |       0.0311 |       0.0311 |       0.1010 |       0.1010 |       0.0336 |       0.0336 |       0.0896 |       0.0896 |       0.0338 |       0.0338 |       0.0881 |       0.0881 |       0.0350 |       0.0350 |       0.0749 |       0.0749 |       0.0277 |       0.0277 |       0.0631 |       0.0631 |       0.0248 |       0.0248 |       0.0649 |       0.0649 |       0.0240 |       0.0240 |       0.0547 |       0.0547 |       0.0215 |       0.0215 |
dl1.wb_rate                                 0.0607 |       0.0607 |       0.0206 |       0.0206 |       0.0534 |       0.0534 |       0.0194 |       0.0194 |       0.0567 |       0.0567 |       0.0209 |       0.0209 |       0.0502 |       0.0502 |       0.0202 |       0.0202 |       0.0535 |       0.0535 |       0.0216 |       0.0216 |       0.0478 |       0.0478 |       0.0209 |       0.0209 |       0.0468 |       0.0468 |       0.0213 |       0.0213 |       0.0404 |       0.0404 |       0.0169 |       0.0169 |       0.0344 |       0.0344 |       0.0149 |       0.0149 |       0.0351 |       0.0351 |       0.0146 |       0.0146 |       0.0299 |       0.0299 |       0.0129 |       0.0129 |
dl1.inv_rate                                0.0000 |       0.0000 |       0.0000 |       0.0000 |       0.0000 |       0.0000 |       0.0000 |       0.0000 |       0.0000 |       0.0000 |       0.0000 |       0.0000 |       0.0000 |       0.0000 |       0.0000 |       0.0000 |       0.0000 |       0.0000 |       0.0000 |       0.0000 |       0.0000 |       0.0000 |       0.0000 |       0.0000 |       0.0000 |       0.0000 |       0.0000 |       0.0000 |       0.0000 |       0.0000 |       0.0000 |       0.0000 |       0.0000 |       0.0000 |       0.0000 |       0.0000 |       0.0000 |       0.0000 |       0.0000 |       0.0000 |       0.0000 |       0.0000 |       0.0000 |       0.0000 |
dl2.accesses                                 43207 |        43207 |        12565 |        12565 |        77244 |        77244 |        24562 |        24562 |       182657 |       182657 |        58494 |        58494 |       330805 |       330805 |       118791 |       118791 |       781139 |       781139 |       279105 |       279105 |      1427613 |      1427613 |       569325 |       569325 |      2962241 |      2962241 |      1235493 |      1235493 |      8583338 |      8583338 |      2816897 |      2816897 |     15721086 |     15721086 |      5333682 |      5333682 |     34403895 |     34403895 |     11254838 |     11254838 |     63017374 |     63017374 |     21327168 |     21327168 |
dl2.hits                                     41149 |        41149 |        10600 |        10600 |        74129 |        74129 |        21556 |        21556 |       177529 |       177529 |        53463 |        53463 |       321544 |       321544 |       109639 |       109639 |       763714 |       763714 |       261777 |       261777 |      1393775 |      1393775 |       535596 |       535596 |      2895635 |      2895486 |      1169000 |      1132331 |      8395496 |      8295141 |      2647631 |      2425458 |     15136358 |     15062902 |      4686423 |      4554124 |     33092670 |     33089700 |      9945406 |      9699200 |     60390687 |     60388606 |     18703197 |     18218233 |
dl2.misses                                    2058 |         2058 |         1965 |         1965 |         3115 |         3115 |         3006 |         3006 |         5128 |         5128 |         5031 |         5031 |         9261 |         9261 |         9152 |         9152 |        17425 |        17425 |        17328 |        17328 |        33838 |        33838 |        33729 |        33729 |        66606 |        66755 |        66493 |       103162 |       187842 |       288197 |       169266 |       391439 |       584728 |       658184 |       647259 |       779558 |      1311225 |      1314195 |      1309432 |      1555638 |      2626687 |      2628768 |      2623971 |      3108935 |
dl2.replacements                               253 |          253 |            0 |            0 |          285 |          285 |            0 |            0 |          257 |          257 |            0 |            0 |          285 |          285 |            0 |            0 |          258 |          258 |            0 |            0 |          286 |          286 |            0 |            0 |          294 |         1219 |            0 |        37626 |        88086 |       222661 |        38194 |       325903 |       453656 |       592648 |       516187 |       714022 |      1180153 |      1248659 |      1178360 |      1490102 |      2495615 |      2563232 |      2492899 |      3043399 |
dl2.writebacks                                  88 |           88 |            0 |            0 |           96 |           96 |            0 |            0 |           92 |           92 |            0 |            0 |           96 |           96 |            0 |            0 |           93 |           93 |            0 |            0 |           97 |           97 |            0 |            0 |          108 |          718 |            0 |        37178 |        87824 |       188552 |        37367 |       292046 |       388913 |       473677 |       460430 |       614507 |       951368 |       993192 |       985375 |      1259375 |      1986593 |      2040670 |      2035344 |      2550199 |
dl2.invalidations                                0 |            0 |            0 |            0 |            0 |            0 |            0 |            0 |            0 |            0 |            0 |            0 |            0 |            0 |            0 |            0 |            0 |            0 |            0 |            0 |            0 |            0 |            0 |            0 |            0 |            0 |            0 |            0 |            0 |            0 |            0 |            0 |            0 |            0 |            0 |            0 |            0 |            0 |            0 |            0 |            0 |            0 |            0 |            0 |
dl2.miss_rate                               0.0476 |       0.0476 |       0.1564 |       0.1564 |       0.0403 |       0.0403 |       0.1224 |       0.1224 |       0.0281 |       0.0281 |       0.0860 |       0.0860 |       0.0280 |       0.0280 |       0.0770 |       0.0770 |       0.0223 |       0.0223 |       0.0621 |       0.0621 |       0.0237 |       0.0237 |       0.0592 |       0.0592 |       0.0225 |       0.0225 |       0.0538 |       0.0835 |       0.0219 |       0.0336 |       0.0601 |       0.1390 |       0.0372 |       0.0419 |       0.1214 |       0.1462 |       0.0381 |       0.0382 |       0.1163 |       0.1382 |       0.0417 |       0.0417 |       0.1230 |       0.1458 |
dl2.repl_rate                               0.0059 |       0.0059 |       0.0000 |       0.0000 |       0.0037 |       0.0037 |       0.0000 |       0.0000 |       0.0014 |       0.0014 |       0.0000 |       0.0000 |       0.0009 |       0.0009 |       0.0000 |       0.0000 |       0.0003 |       0.0003 |       0.0000 |       0.0000 |       0.0002 |       0.0002 |       0.0000 |       0.0000 |       0.0001 |       0.0004 |       0.0000 |       0.0305 |       0.0103 |       0.0259 |       0.0136 |       0.1157 |       0.0289 |       0.0377 |       0.0968 |       0.1339 |       0.0343 |       0.0363 |       0.1047 |       0.1324 |       0.0396 |       0.0407 |       0.1169 |       0.1427 |
dl2.wb_rate                                 0.0020 |       0.0020 |       0.0000 |       0.0000 |       0.0012 |       0.0012 |       0.0000 |       0.0000 |       0.0005 |       0.0005 |       0.0000 |       0.0000 |       0.0003 |       0.0003 |       0.0000 |       0.0000 |       0.0001 |       0.0001 |       0.0000 |       0.0000 |       0.0001 |       0.0001 |       0.0000 |       0.0000 |       0.0000 |       0.0002 |       0.0000 |       0.0301 |       0.0102 |       0.0220 |       0.0133 |       0.1037 |       0.0247 |       0.0301 |       0.0863 |       0.1152 |       0.0277 |       0.0289 |       0.0876 |       0.1119 |       0.0315 |       0.0324 |       0.0954 |       0.1196 |
dl2.inv_rate                                0.0000 |       0.0000 |       0.0000 |       0.0000 |       0.0000 |       0.0000 |       0.0000 |       0.0000 |       0.0000 |       0.0000 |       0.0000 |       0.0000 |       0.0000 |       0.0000 |       0.0000 |       0.0000 |       0.0000 |       0.0000 |       0.0000 |       0.0000 |       0.0000 |       0.0000 |       0.0000 |       0.0000 |       0.0000 |       0.0000 |       0.0000 |       0.0000 |       0.0000 |       0.0000 |       0.0000 |       0.0000 |       0.0000 |       0.0000 |       0.0000 |       0.0000 |       0.0000 |       0.0000 |       0.0000 |       0.0000 |       0.0000 |       0.0000 |       0.0000 |       0.0000 |
itlb.accesses                               857123 |       857123 |       857123 |       857123 |      1746597 |      1746597 |      1746597 |      1746597 |      3956796 |      3956796 |      3956796 |      3956796 |      8063573 |      8063573 |      8063573 |      8063573 |     17983383 |     17983383 |     17983383 |     17983383 |     36564936 |     36564936 |     36564936 |     36564936 |     77457249 |     77457249 |     77457249 |     77457249 |    223365922 |    223365922 |    223365922 |    223365922 |    473172103 |    473172103 |    473172103 |    473172103 |   1035661466 |   1035661466 |   1035661466 |   1035661466 |   2186706021 |   2186706021 |   2186706021 |   2186706021 |
itlb.hits                                   857109 |       857109 |       857109 |       857109 |      1746583 |      1746583 |      1746583 |      1746583 |      3956782 |      3956782 |      3956782 |      3956782 |      8063559 |      8063559 |      8063559 |      8063559 |     17983369 |     17983369 |     17983369 |     17983369 |     36564922 |     36564922 |     36564922 |     36564922 |     77457235 |     77457235 |     77457235 |     77457235 |    223365908 |    223365908 |    223365908 |    223365908 |    473172089 |    473172089 |    473172089 |    473172089 |   1035661452 |   1035661452 |   1035661452 |   1035661452 |   2186706007 |   2186706007 |   2186706007 |   2186706007 |
itlb.misses                                     14 |           14 |           14 |           14 |           14 |           14 |           14 |           14 |           14 |           14 |           14 |           14 |           14 |           14 |           14 |           14 |           14 |           14 |           14 |           14 |           14 |           14 |           14 |           14 |           14 |           14 |           14 |           14 |           14 |           14 |           14 |           14 |           14 |           14 |           14 |           14 |           14 |           14 |           14 |           14 |           14 |           14 |           14 |           14 |
itlb.replacements                                0 |            0 |            0 |            0 |            0 |            0 |            0 |            0 |            0 |            0 |            0 |            0 |            0 |            0 |            0 |            0 |            0 |            0 |            0 |            0 |            0 |            0 |            0 |            0 |            0 |            0 |            0 |            0 |            0 |            0 |            0 |            0 |            0 |            0 |            0 |            0 |            0 |            0 |            0 |            0 |            0 |            0 |            0 |            0 |
itlb.writebacks                                  0 |            0 |            0 |            0 |            0 |            0 |            0 |            0 |            0 |            0 |            0 |            0 |            0 |            0 |            0 |            0 |            0 |            0 |            0 |            0 |            0 |            0 |            0 |            0 |            0 |            0 |            0 |            0 |            0 |            0 |            0 |            0 |            0 |            0 |            0 |            0 |            0 |            0 |            0 |            0 |            0 |            0 |            0 |            0 |
itlb.invalidations                               0 |            0 |            0 |            0 |            0 |            0 |            0 |            0 |            0 |            0 |            0 |            0 |            0 |            0 |            0 |            0 |            0 |            0 |            0 |            0 |            0 |            0 |            0 |            0 |            0 |            0 |            0 |            0 |            0 |            0 |            0 |            0 |            0 |            0 |            0 |            0 |            0 |            0 |            0 |            0 |            0 |            0 |            0 |            0 |
itlb.miss_rate                              0.0000 |       0.0000 |       0.0000 |       0.0000 |       0.0000 |       0.0000 |       0.0000 |       0.0000 |       0.0000 |       0.0000 |       0.0000 |       0.0000 |       0.0000 |       0.0000 |       0.0000 |       0.0000 |       0.0000 |       0.0000 |       0.0000 |       0.0000 |       0.0000 |       0.0000 |       0.0000 |       0.0000 |       0.0000 |       0.0000 |       0.0000 |       0.0000 |       0.0000 |       0.0000 |       0.0000 |       0.0000 |       0.0000 |       0.0000 |       0.0000 |       0.0000 |       0.0000 |       0.0000 |       0.0000 |       0.0000 |       0.0000 |       0.0000 |       0.0000 |       0.0000 |
itlb.repl_rate                              0.0000 |       0.0000 |       0.0000 |       0.0000 |       0.0000 |       0.0000 |       0.0000 |       0.0000 |       0.0000 |       0.0000 |       0.0000 |       0.0000 |       0.0000 |       0.0000 |       0.0000 |       0.0000 |       0.0000 |       0.0000 |       0.0000 |       0.0000 |       0.0000 |       0.0000 |       0.0000 |       0.0000 |       0.0000 |       0.0000 |       0.0000 |       0.0000 |       0.0000 |       0.0000 |       0.0000 |       0.0000 |       0.0000 |       0.0000 |       0.0000 |       0.0000 |       0.0000 |       0.0000 |       0.0000 |       0.0000 |       0.0000 |       0.0000 |       0.0000 |       0.0000 |
itlb.wb_rate                                0.0000 |       0.0000 |       0.0000 |       0.0000 |       0.0000 |       0.0000 |       0.0000 |       0.0000 |       0.0000 |       0.0000 |       0.0000 |       0.0000 |       0.0000 |       0.0000 |       0.0000 |       0.0000 |       0.0000 |       0.0000 |       0.0000 |       0.0000 |       0.0000 |       0.0000 |       0.0000 |       0.0000 |       0.0000 |       0.0000 |       0.0000 |       0.0000 |       0.0000 |       0.0000 |       0.0000 |       0.0000 |       0.0000 |       0.0000 |       0.0000 |       0.0000 |       0.0000 |       0.0000 |       0.0000 |       0.0000 |       0.0000 |       0.0000 |       0.0000 |       0.0000 |
itlb.inv_rate                               0.0000 |       0.0000 |       0.0000 |       0.0000 |       0.0000 |       0.0000 |       0.0000 |       0.0000 |       0.0000 |       0.0000 |       0.0000 |       0.0000 |       0.0000 |       0.0000 |       0.0000 |       0.0000 |       0.0000 |       0.0000 |       0.0000 |       0.0000 |       0.0000 |       0.0000 |       0.0000 |       0.0000 |       0.0000 |       0.0000 |       0.0000 |       0.0000 |       0.0000 |       0.0000 |       0.0000 |       0.0000 |       0.0000 |       0.0000 |       0.0000 |       0.0000 |       0.0000 |       0.0000 |       0.0000 |       0.0000 |       0.0000 |       0.0000 |       0.0000 |       0.0000 |
dtlb.accesses                               244860 |       244860 |       244860 |       244860 |       504023 |       504023 |       504023 |       504023 |      1116592 |      1116592 |      1116592 |      1116592 |      2302326 |      2302326 |      2302326 |      2302326 |      5047092 |      5047092 |      5047092 |      5047092 |     10377972 |     10377972 |     10377972 |     10377972 |     21932955 |     21932955 |     21932955 |     21932955 |     63033798 |     63033798 |     63033798 |     63033798 |    134346012 |    134346012 |    134346012 |    134346012 |    291563359 |    291563359 |    291563359 |    291563359 |    621092134 |    621092134 |    621092134 |    621092134 |
dtlb.hits                                   244844 |       244844 |       244844 |       244844 |       503999 |       503999 |       503999 |       503999 |      1116552 |      1116552 |      1116552 |      1116552 |      2302254 |      2302254 |      2302254 |      2302254 |      5046907 |      5046907 |      5046907 |      5046907 |     10375546 |     10375546 |     10375546 |     10375546 |     21927541 |     21927541 |     21927541 |     21927541 |     63022067 |     63022067 |     63022067 |     63022067 |    134322503 |    134322503 |    134322503 |    134322503 |    291496395 |    291496395 |    291496395 |    291496395 |    620620227 |    620620227 |    620620227 |    620620227 |
dtlb.misses                                     16 |           16 |           16 |           16 |           24 |           24 |           24 |           24 |           40 |           40 |           40 |           40 |           72 |           72 |           72 |           72 |          185 |          185 |          185 |          185 |         2426 |         2426 |         2426 |         2426 |         5414 |         5414 |         5414 |         5414 |        11731 |        11731 |        11731 |        11731 |        23509 |        23509 |        23509 |        23509 |        66964 |        66964 |        66964 |        66964 |       471907 |       471907 |       471907 |       471907 |
dtlb.replacements                                0 |            0 |            0 |            0 |            0 |            0 |            0 |            0 |            0 |            0 |            0 |            0 |            0 |            0 |            0 |            0 |           57 |           57 |           57 |           57 |         2298 |         2298 |         2298 |         2298 |         5286 |         5286 |         5286 |         5286 |        11603 |        11603 |        11603 |        11603 |        23381 |        23381 |        23381 |        23381 |        66836 |        66836 |        66836 |        66836 |       471779 |       471779 |       471779 |       471779 |
dtlb.writebacks                                  0 |            0 |            0 |            0 |            0 |            0 |            0 |            0 |            0 |            0 |            0 |            0 |            0 |            0 |            0 |            0 |           37 |           37 |           37 |           37 |         1333 |         1333 |         1333 |         1333 |         3029 |         3029 |         3029 |         3029 |         6583 |         6583 |         6583 |         6583 |        13210 |        13210 |        13210 |        13210 |        26466 |        26466 |        26466 |        26466 |        52961 |        52961 |        52961 |        52961 |
dtlb.invalidations                               0 |            0 |            0 |            0 |            0 |            0 |            0 |            0 |            0 |            0 |            0 |            0 |            0 |            0 |            0 |            0 |            0 |            0 |            0 |            0 |            0 |            0 |            0 |            0 |            0 |            0 |            0 |            0 |            0 |            0 |            0 |            0 |            0 |            0 |            0 |            0 |            0 |            0 |            0 |            0 |            0 |            0 |            0 |            0 |
dtlb.miss_rate                              0.0001 |       0.0001 |       0.0001 |       0.0001 |       0.0000 |       0.0000 |       0.0000 |       0.0000 |       0.0000 |       0.0000 |       0.0000 |       0.0000 |       0.0000 |       0.0000 |       0.0000 |       0.0000 |       0.0000 |       0.0000 |       0.0000 |       0.0000 |       0.0002 |       0.0002 |       0.0002 |       0.0002 |       0.0002 |       0.0002 |       0.0002 |       0.0002 |       0.0002 |       0.0002 |       0.0002 |       0.0002 |       0.0002 |       0.0002 |       0.0002 |       0.0002 |       0.0002 |       0.0002 |       0.0002 |       0.0002 |       0.0008 |       0.0008 |       0.0008 |       0.0008 |
dtlb.repl_rate                              0.0000 |       0.0000 |       0.0000 |       0.0000 |       0.0000 |       0.0000 |       0.0000 |       0.0000 |       0.0000 |       0.0000 |       0.0000 |       0.0000 |       0.0000 |       0.0000 |       0.0000 |       0.0000 |       0.0000 |       0.0000 |       0.0000 |       0.0000 |       0.0002 |       0.0002 |       0.0002 |       0.0002 |       0.0002 |       0.0002 |       0.0002 |       0.0002 |       0.0002 |       0.0002 |       0.0002 |       0.0002 |       0.0002 |       0.0002 |       0.0002 |       0.0002 |       0.0002 |       0.0002 |       0.0002 |       0.0002 |       0.0008 |       0.0008 |       0.0008 |       0.0008 |
dtlb.wb_rate                                0.0000 |       0.0000 |       0.0000 |       0.0000 |       0.0000 |       0.0000 |       0.0000 |       0.0000 |       0.0000 |       0.0000 |       0.0000 |       0.0000 |       0.0000 |       0.0000 |       0.0000 |       0.0000 |       0.0000 |       0.0000 |       0.0000 |       0.0000 |       0.0001 |       0.0001 |       0.0001 |       0.0001 |       0.0001 |       0.0001 |       0.0001 |       0.0001 |       0.0001 |       0.0001 |       0.0001 |       0.0001 |       0.0001 |       0.0001 |       0.0001 |       0.0001 |       0.0001 |       0.0001 |       0.0001 |       0.0001 |       0.0001 |       0.0001 |       0.0001 |       0.0001 |
dtlb.inv_rate                               0.0000 |       0.0000 |       0.0000 |       0.0000 |       0.0000 |       0.0000 |       0.0000 |       0.0000 |       0.0000 |       0.0000 |       0.0000 |       0.0000 |       0.0000 |       0.0000 |       0.0000 |       0.0000 |       0.0000 |       0.0000 |       0.0000 |       0.0000 |       0.0000 |       0.0000 |       0.0000 |       0.0000 |       0.0000 |       0.0000 |       0.0000 |       0.0000 |       0.0000 |       0.0000 |       0.0000 |       0.0000 |       0.0000 |       0.0000 |       0.0000 |       0.0000 |       0.0000 |       0.0000 |       0.0000 |       0.0000 |       0.0000 |       0.0000 |       0.0000 |       0.0000 |
ld_text_base                            0x00400000 |   0x00400000 |   0x00400000 |   0x00400000 |   0x00400000 |   0x00400000 |   0x00400000 |   0x00400000 |   0x00400000 |   0x00400000 |   0x00400000 |   0x00400000 |   0x00400000 |   0x00400000 |   0x00400000 |   0x00400000 |   0x00400000 |   0x00400000 |   0x00400000 |   0x00400000 |   0x00400000 |   0x00400000 |   0x00400000 |   0x00400000 |   0x00400000 |   0x00400000 |   0x00400000 |   0x00400000 |   0x00400000 |   0x00400000 |   0x00400000 |   0x00400000 |   0x00400000 |   0x00400000 |   0x00400000 |   0x00400000 |   0x00400000 |   0x00400000 |   0x00400000 |   0x00400000 |   0x00400000 |   0x00400000 |   0x00400000 |   0x00400000 |
ld_text_size                                 94704 |        94704 |        94704 |        94704 |        94736 |        94736 |        94736 |        94736 |        94752 |        94752 |        94752 |        94752 |        94768 |        94768 |        94768 |        94768 |        94768 |        94768 |        94768 |        94768 |        94768 |        94768 |        94768 |        94768 |        94768 |        94768 |        94768 |        94768 |        94768 |        94768 |        94768 |        94768 |        94768 |        94768 |        94768 |        94768 |        94768 |        94768 |        94768 |        94768 |        94768 |        94768 |        94768 |        94768 |
ld_data_base                            0x10000000 |   0x10000000 |   0x10000000 |   0x10000000 |   0x10000000 |   0x10000000 |   0x10000000 |   0x10000000 |   0x10000000 |   0x10000000 |   0x10000000 |   0x10000000 |   0x10000000 |   0x10000000 |   0x10000000 |   0x10000000 |   0x10000000 |   0x10000000 |   0x10000000 |   0x10000000 |   0x10000000 |   0x10000000 |   0x10000000 |   0x10000000 |   0x10000000 |   0x10000000 |   0x10000000 |   0x10000000 |   0x10000000 |   0x10000000 |   0x10000000 |   0x10000000 |   0x10000000 |   0x10000000 |   0x10000000 |   0x10000000 |   0x10000000 |   0x10000000 |   0x10000000 |   0x10000000 |   0x10000000 |   0x10000000 |   0x10000000 |   0x10000000 |
ld_data_size                                  8192 |         8192 |         8192 |         8192 |         8192 |         8192 |         8192 |         8192 |         8192 |         8192 |         8192 |         8192 |         8192 |         8192 |         8192 |         8192 |         8192 |         8192 |         8192 |         8192 |         8192 |         8192 |         8192 |         8192 |         8192 |         8192 |         8192 |         8192 |         8192 |         8192 |         8192 |         8192 |         8192 |         8192 |         8192 |         8192 |         8192 |         8192 |         8192 |         8192 |         8192 |         8192 |         8192 |         8192 |
ld_stack_base                           0x7fffc000 |   0x7fffc000 |   0x7fffc000 |   0x7fffc000 |   0x7fffc000 |   0x7fffc000 |   0x7fffc000 |   0x7fffc000 |   0x7fffc000 |   0x7fffc000 |   0x7fffc000 |   0x7fffc000 |   0x7fffc000 |   0x7fffc000 |   0x7fffc000 |   0x7fffc000 |   0x7fffc000 |   0x7fffc000 |   0x7fffc000 |   0x7fffc000 |   0x7fffc000 |   0x7fffc000 |   0x7fffc000 |   0x7fffc000 |   0x7fffc000 |   0x7fffc000 |   0x7fffc000 |   0x7fffc000 |   0x7fffc000 |   0x7fffc000 |   0x7fffc000 |   0x7fffc000 |   0x7fffc000 |   0x7fffc000 |   0x7fffc000 |   0x7fffc000 |   0x7fffc000 |   0x7fffc000 |   0x7fffc000 |   0x7fffc000 |   0x7fffc000 |   0x7fffc000 |   0x7fffc000 |   0x7fffc000 |
ld_stack_size                                16384 |        16384 |        16384 |        16384 |        16384 |        16384 |        16384 |        16384 |        16384 |        16384 |        16384 |        16384 |        16384 |        16384 |        16384 |        16384 |        16384 |        16384 |        16384 |        16384 |        16384 |        16384 |        16384 |        16384 |        16384 |        16384 |        16384 |        16384 |        16384 |        16384 |        16384 |        16384 |        16384 |        16384 |        16384 |        16384 |        16384 |        16384 |        16384 |        16384 |        16384 |        16384 |        16384 |        16384 |
ld_prog_entry                           0x00400140 |   0x00400140 |   0x00400140 |   0x00400140 |   0x00400140 |   0x00400140 |   0x00400140 |   0x00400140 |   0x00400140 |   0x00400140 |   0x00400140 |   0x00400140 |   0x00400140 |   0x00400140 |   0x00400140 |   0x00400140 |   0x00400140 |   0x00400140 |   0x00400140 |   0x00400140 |   0x00400140 |   0x00400140 |   0x00400140 |   0x00400140 |   0x00400140 |   0x00400140 |   0x00400140 |   0x00400140 |   0x00400140 |   0x00400140 |   0x00400140 |   0x00400140 |   0x00400140 |   0x00400140 |   0x00400140 |   0x00400140 |   0x00400140 |   0x00400140 |   0x00400140 |   0x00400140 |   0x00400140 |   0x00400140 |   0x00400140 |   0x00400140 |
ld_environ_base                         0x7fff8000 |   0x7fff8000 |   0x7fff8000 |   0x7fff8000 |   0x7fff8000 |   0x7fff8000 |   0x7fff8000 |   0x7fff8000 |   0x7fff8000 |   0x7fff8000 |   0x7fff8000 |   0x7fff8000 |   0x7fff8000 |   0x7fff8000 |   0x7fff8000 |   0x7fff8000 |   0x7fff8000 |   0x7fff8000 |   0x7fff8000 |   0x7fff8000 |   0x7fff8000 |   0x7fff8000 |   0x7fff8000 |   0x7fff8000 |   0x7fff8000 |   0x7fff8000 |   0x7fff8000 |   0x7fff8000 |   0x7fff8000 |   0x7fff8000 |   0x7fff8000 |   0x7fff8000 |   0x7fff8000 |   0x7fff8000 |   0x7fff8000 |   0x7fff8000 |   0x7fff8000 |   0x7fff8000 |   0x7fff8000 |   0x7fff8000 |   0x7fff8000 |   0x7fff8000 |   0x7fff8000 |   0x7fff8000 |
ld_target_big_endian                             0 |            0 |            0 |            0 |            0 |            0 |            0 |            0 |            0 |            0 |            0 |            0 |            0 |            0 |            0 |            0 |            0 |            0 |            0 |            0 |            0 |            0 |            0 |            0 |            0 |            0 |            0 |            0 |            0 |            0 |            0 |            0 |            0 |            0 |            0 |            0 |            0 |            0 |            0 |            0 |            0 |            0 |            0 |            0 |
mem.page_count                                  40 |           40 |           40 |           40 |           48 |           48 |           48 |           48 |           64 |           64 |           64 |           64 |           96 |           96 |           96 |           96 |          160 |          160 |          160 |          160 |          288 |          288 |          288 |          288 |          544 |          544 |          544 |          544 |         1062 |         1062 |         1062 |         1062 |         2086 |         2086 |         2086 |         2086 |         4140 |         4140 |         4140 |         4140 |         8248 |         8248 |         8248 |         8248 |
mem.page_mem                                  160k |         160k |         160k |         160k |         192k |         192k |         192k |         192k |         256k |         256k |         256k |         256k |         384k |         384k |         384k |         384k |         640k |         640k |         640k |         640k |        1152k |        1152k |        1152k |        1152k |        2176k |        2176k |        2176k |        2176k |        4248k |        4248k |        4248k |        4248k |        8344k |        8344k |        8344k |        8344k |       16560k |       16560k |       16560k |       16560k |       32992k |       32992k |       32992k |       32992k |
mem.ptab_misses                                 40 |           40 |           40 |           40 |           48 |           48 |           48 |           48 |           64 |           64 |           64 |           64 |           96 |           96 |           96 |           96 |          160 |          160 |          160 |          160 |          288 |          288 |          288 |          288 |          544 |          544 |          544 |          544 |         1067 |         1067 |         1067 |         1067 |        79271 |        79271 |        79271 |        79271 |        89259 |        89259 |        89259 |        89259 |        85435 |        85435 |        85435 |        85435 |
mem.ptab_accesses                          4501060 |      4501060 |      4501060 |      4501060 |      8577474 |      8577474 |      8577474 |      8577474 |     18643504 |     18643504 |     18643504 |     18643504 |     37442176 |     37442176 |     37442176 |     37442176 |     82610948 |     82610948 |     82610948 |     82610948 |    167598920 |    167598920 |    167598920 |    167598920 |    354278138 |    354278138 |    354278138 |    354278138 |   1020114516 |   1020114516 |   1020114516 |   1020114516 |   2161963668 |   2161963668 |   2161963668 |   2161963668 |   4726355814 |   4726355814 |   4726355814 |   4726355814 |   9989591584 |   9989591584 |   9989591584 |   9989591584 |
mem.ptab_miss_rate                          0.0000 |       0.0000 |       0.0000 |       0.0000 |       0.0000 |       0.0000 |       0.0000 |       0.0000 |       0.0000 |       0.0000 |       0.0000 |       0.0000 |       0.0000 |       0.0000 |       0.0000 |       0.0000 |       0.0000 |       0.0000 |       0.0000 |       0.0000 |       0.0000 |       0.0000 |       0.0000 |       0.0000 |       0.0000 |       0.0000 |       0.0000 |       0.0000 |       0.0000 |       0.0000 |       0.0000 |       0.0000 |       0.0000 |       0.0000 |       0.0000 |       0.0000 |       0.0000 |       0.0000 |       0.0000 |       0.0000 |       0.0000 |       0.0000 |       0.0000 |       0.0000 |
-------------------------------------------------------------------------------------------------
sim-bpred                                     4096 |         4096 |         4096 |         4096 |         4096 |         4096 |         4096 |         8192 |         8192 |         8192 |         8192 |         8192 |         8192 |         8192 |        16384 |        16384 |        16384 |        16384 |        16384 |        16384 |        16384 |        32768 |        32768 |        32768 |        32768 |        32768 |        32768 |        32768 |        65536 |        65536 |        65536 |        65536 |        65536 |        65536 |        65536 |       131072 |       131072 |       131072 |       131072 |       131072 |       131072 |       131072 |       262144 |       262144 |       262144 |       262144 |       262144 |       262144 |       262144 |       524288 |       524288 |       524288 |       524288 |       524288 |       524288 |       524288 |      1048576 |      1048576 |      1048576 |      1048576 |      1048576 |      1048576 |      1048576 |      2097152 |      2097152 |      2097152 |      2097152 |      2097152 |      2097152 |      2097152 |      4194304 |      4194304 |      4194304 |      4194304 |      4194304 |      4194304 |      4194304 |
-bpred bimod -bpred:bimod 512
-bpred bimod -bpred:bimod 1024
-bpred bimod -bpred:bimod 2048
-bpred 2lev -bpred:2lev 1 512 10 1
-bpred 2lev -bpred:2lev 1 1024 10 1
-bpred 2lev -bpred:2lev 1 2048 10 1
-bpred 2lev -bpred:2lev 1 4096 10 1
-------------------------------------------------------------------------------------------------
sim_num_insn                                857123 |       857123 |       857123 |       857123 |       857123 |       857123 |       857123 |      1746597 |      1746597 |      1746597 |      1746597 |      1746597 |      1746597 |      1746597 |      3956796 |      3956796 |      3956796 |      3956796 |      3956796 |      3956796 |      3956796 |      8063573 |      8063573 |      8063573 |      8063573 |      8063573 |      8063573 |      8063573 |     17983383 |     17983383 |     17983383 |     17983383 |     17983383 |     17983383 |     17983383 |     36564936 |     36564936 |     36564936 |     36564936 |     36564936 |     36564936 |     36564936 |     77457249 |     77457249 |     77457249 |     77457249 |     77457249 |     77457249 |     77457249 |    223365922 |    223365922 |    223365922 |    223365922 |    223365922 |    223365922 |    223365922 |    473172103 |    473172103 |    473172103 |    473172103 |    473172103 |    473172103 |    473172103 |   1035661466 |   1035661466 |   1035661466 |   1035661466 |   1035661466 |   1035661466 |   1035661466 |   2186706021 |   2186706021 |   2186706021 |   2186706021 |   2186706021 |   2186706021 |   2186706021 |
sim_num_refs                                228394 |       228394 |       228394 |       228394 |       228394 |       228394 |       228394 |       471173 |       471173 |       471173 |       471173 |       471173 |       471173 |       471173 |      1050974 |      1050974 |      1050974 |      1050974 |      1050974 |      1050974 |      1050974 |      2171172 |      2171172 |      2171172 |      2171172 |      2171172 |      2171172 |      2171172 |      4784866 |      4784866 |      4784866 |      4784866 |      4784866 |      4784866 |      4784866 |      9853602 |      9853602 |      9853602 |      9853602 |      9853602 |      9853602 |      9853602 |     20884297 |     20884297 |     20884297 |     20884297 |     20884297 |     20884297 |     20884297 |     60936564 |     60936564 |     60936564 |     60936564 |     60936564 |     60936564 |     60936564 |    130151626 |    130151626 |    130151626 |    130151626 |    130151626 |    130151626 |    130151626 |    283174669 |    283174669 |    283174669 |    283174669 |    283174669 |    283174669 |    283174669 |    604314836 |    604314836 |    604314836 |    604314836 |    604314836 |    604314836 |    604314836 |
sim_elapsed_time                                 1 |            1 |            1 |            1 |            1 |            1 |            1 |            1 |            1 |            1 |            1 |            1 |            1 |            1 |            1 |            1 |            1 |            1 |            1 |            1 |            1 |            1 |            1 |            1 |            1 |            1 |            1 |            1 |            2 |            2 |            2 |            2 |            2 |            3 |            2 |            5 |            4 |            4 |            4 |            5 |            4 |            4 |            9 |            9 |            9 |            9 |            9 |            9 |            9 |           26 |           27 |           26 |           26 |           27 |           27 |           26 |           56 |           56 |           56 |           57 |           57 |           57 |           56 |          123 |          123 |          122 |          124 |          125 |          124 |          124 |          260 |          260 |          259 |          265 |          264 |          263 |          264 |
sim_inst_rate                          857123.0000 |  857123.0000 |  857123.0000 |  857123.0000 |  857123.0000 |  857123.0000 |  857123.0000 | 1746597.0000 | 1746597.0000 | 1746597.0000 | 1746597.0000 | 1746597.0000 | 1746597.0000 | 1746597.0000 | 3956796.0000 | 3956796.0000 | 3956796.0000 | 3956796.0000 | 3956796.0000 | 3956796.0000 | 3956796.0000 | 8063573.0000 | 8063573.0000 | 8063573.0000 | 8063573.0000 | 8063573.0000 | 8063573.0000 | 8063573.0000 | 8991691.5000 | 8991691.5000 | 8991691.5000 | 8991691.5000 | 8991691.5000 | 5994461.0000 | 8991691.5000 | 7312987.2000 | 9141234.0000 | 9141234.0000 | 9141234.0000 | 7312987.2000 | 9141234.0000 | 9141234.0000 | 8606361.0000 | 8606361.0000 | 8606361.0000 | 8606361.0000 | 8606361.0000 | 8606361.0000 | 8606361.0000 | 8590997.0000 | 8272811.9259 | 8590997.0000 | 8590997.0000 | 8272811.9259 | 8272811.9259 | 8590997.0000 | 8449501.8393 | 8449501.8393 | 8449501.8393 | 8301264.9649 | 8301264.9649 | 8301264.9649 | 8449501.8393 | 8420011.9187 | 8420011.9187 | 8489028.4098 | 8352108.5968 | 8285291.7280 | 8352108.5968 | 8352108.5968 | 8410407.7731 | 8410407.7731 | 8442880.3900 | 8251720.8340 | 8282977.3523 | 8314471.5627 | 8282977.3523 |
sim_num_branches                            112541 |       112541 |       112541 |       112541 |       112541 |       112541 |       112541 |       235272 |       235272 |       235272 |       235272 |       235272 |       235272 |       235272 |       514381 |       514381 |       514381 |       514381 |       514381 |       514381 |       514381 |      1071882 |      1071882 |      1071882 |      1071882 |      1071882 |      1071882 |      1071882 |      2319677 |      2319677 |      2319677 |      2319677 |      2319677 |      2319677 |      2319677 |      4811329 |      4811329 |      4811329 |      4811329 |      4811329 |      4811329 |      4811329 |     10148072 |     10148072 |     10148072 |     10148072 |     10148072 |     10148072 |     10148072 |     30674544 |     30674544 |     30674544 |     30674544 |     30674544 |     30674544 |     30674544 |     67175440 |     67175440 |     67175440 |     67175440 |     67175440 |     67175440 |     67175440 |    145960774 |    145960774 |    145960774 |    145960774 |    145960774 |    145960774 |    145960774 |    314559719 |    314559719 |    314559719 |    314559719 |    314559719 |    314559719 |    314559719 |
sim_IPB                                     7.6161 |       7.6161 |       7.6161 |       7.6161 |       7.6161 |       7.6161 |       7.6161 |       7.4237 |       7.4237 |       7.4237 |       7.4237 |       7.4237 |       7.4237 |       7.4237 |       7.6923 |       7.6923 |       7.6923 |       7.6923 |       7.6923 |       7.6923 |       7.6923 |       7.5228 |       7.5228 |       7.5228 |       7.5228 |       7.5228 |       7.5228 |       7.5228 |       7.7525 |       7.7525 |       7.7525 |       7.7525 |       7.7525 |       7.7525 |       7.7525 |       7.5998 |       7.5998 |       7.5998 |       7.5998 |       7.5998 |       7.5998 |       7.5998 |       7.6327 |       7.6327 |       7.6327 |       7.6327 |       7.6327 |       7.6327 |       7.6327 |       7.2818 |       7.2818 |       7.2818 |       7.2818 |       7.2818 |       7.2818 |       7.2818 |       7.0438 |       7.0438 |       7.0438 |       7.0438 |       7.0438 |       7.0438 |       7.0438 |       7.0955 |       7.0955 |       7.0955 |       7.0955 |       7.0955 |       7.0955 |       7.0955 |       6.9516 |       6.9516 |       6.9516 |       6.9516 |       6.9516 |       6.9516 |       6.9516 |
bpred_bimod.lookups                         112541 |       112541 |       112541 |xxxxxxxxxxxxx |xxxxxxxxxxxxx |xxxxxxxxxxxxx |xxxxxxxxxxxxx |       235272 |       235272 |       235272 |xxxxxxxxxxxxx |xxxxxxxxxxxxx |xxxxxxxxxxxxx |xxxxxxxxxxxxx |       514381 |       514381 |       514381 |xxxxxxxxxxxxx |xxxxxxxxxxxxx |xxxxxxxxxxxxx |xxxxxxxxxxxxx |      1071882 |      1071882 |      1071882 |xxxxxxxxxxxxx |xxxxxxxxxxxxx |xxxxxxxxxxxxx |xxxxxxxxxxxxx |      2319677 |      2319677 |      2319677 |xxxxxxxxxxxxx |xxxxxxxxxxxxx |xxxxxxxxxxxxx |xxxxxxxxxxxxx |      4811329 |      4811329 |      4811329 |xxxxxxxxxxxxx |xxxxxxxxxxxxx |xxxxxxxxxxxxx |xxxxxxxxxxxxx |     10148072 |     10148072 |     10148072 |xxxxxxxxxxxxx |xxxxxxxxxxxxx |xxxxxxxxxxxxx |xxxxxxxxxxxxx |     30674544 |     30674544 |     30674544 |xxxxxxxxxxxxx |xxxxxxxxxxxxx |xxxxxxxxxxxxx |xxxxxxxxxxxxx |     67175440 |     67175440 |     67175440 |xxxxxxxxxxxxx |xxxxxxxxxxxxx |xxxxxxxxxxxxx |xxxxxxxxxxxxx |    145960774 |    145960774 |    145960774 |xxxxxxxxxxxxx |xxxxxxxxxxxxx |xxxxxxxxxxxxx |xxxxxxxxxxxxx |    314559719 |    314559719 |    314559719 |
bpred_bimod.updates                         112541 |       112541 |       112541 |xxxxxxxxxxxxx |xxxxxxxxxxxxx |xxxxxxxxxxxxx |xxxxxxxxxxxxx |       235272 |       235272 |       235272 |xxxxxxxxxxxxx |xxxxxxxxxxxxx |xxxxxxxxxxxxx |xxxxxxxxxxxxx |       514381 |       514381 |       514381 |xxxxxxxxxxxxx |xxxxxxxxxxxxx |xxxxxxxxxxxxx |xxxxxxxxxxxxx |      1071882 |      1071882 |      1071882 |xxxxxxxxxxxxx |xxxxxxxxxxxxx |xxxxxxxxxxxxx |xxxxxxxxxxxxx |      2319677 |      2319677 |      2319677 |xxxxxxxxxxxxx |xxxxxxxxxxxxx |xxxxxxxxxxxxx |xxxxxxxxxxxxx |      4811329 |      4811329 |      4811329 |xxxxxxxxxxxxx |xxxxxxxxxxxxx |xxxxxxxxxxxxx |xxxxxxxxxxxxx |     10148072 |     10148072 |     10148072 |xxxxxxxxxxxxx |xxxxxxxxxxxxx |xxxxxxxxxxxxx |xxxxxxxxxxxxx |     30674544 |     30674544 |     30674544 |xxxxxxxxxxxxx |xxxxxxxxxxxxx |xxxxxxxxxxxxx |xxxxxxxxxxxxx |     67175440 |     67175440 |     67175440 |xxxxxxxxxxxxx |xxxxxxxxxxxxx |xxxxxxxxxxxxx |xxxxxxxxxxxxx |    145960774 |    145960774 |    145960774 |xxxxxxxxxxxxx |xxxxxxxxxxxxx |xxxxxxxxxxxxx |xxxxxxxxxxxxx |    314559719 |    314559719 |    314559719 |
bpred_bimod.addr_hits                        86815 |        86821 |        86826 |xxxxxxxxxxxxx |xxxxxxxxxxxxx |xxxxxxxxxxxxx |xxxxxxxxxxxxx |       183317 |       183324 |       183328 |xxxxxxxxxxxxx |xxxxxxxxxxxxx |xxxxxxxxxxxxx |xxxxxxxxxxxxx |       395934 |       395957 |       395962 |xxxxxxxxxxxxx |xxxxxxxxxxxxx |xxxxxxxxxxxxx |xxxxxxxxxxxxx |       832787 |       832805 |       832810 |xxxxxxxxxxxxx |xxxxxxxxxxxxx |xxxxxxxxxxxxx |xxxxxxxxxxxxx |      1782540 |      1782630 |      1782634 |xxxxxxxxxxxxx |xxxxxxxxxxxxx |xxxxxxxxxxxxx |xxxxxxxxxxxxx |      3726108 |      3726157 |      3726162 |xxxxxxxxxxxxx |xxxxxxxxxxxxx |xxxxxxxxxxxxx |xxxxxxxxxxxxx |      7846450 |      7846550 |      7846615 |xxxxxxxxxxxxx |xxxxxxxxxxxxx |xxxxxxxxxxxxx |xxxxxxxxxxxxx |     24446898 |     24447444 |     24447447 |xxxxxxxxxxxxx |xxxxxxxxxxxxx |xxxxxxxxxxxxx |xxxxxxxxxxxxx |     54420028 |     54420366 |     54420376 |xxxxxxxxxxxxx |xxxxxxxxxxxxx |xxxxxxxxxxxxx |xxxxxxxxxxxxx |    116886314 |    116888442 |    116888451 |xxxxxxxxxxxxx |xxxxxxxxxxxxx |xxxxxxxxxxxxx |xxxxxxxxxxxxx |    252095367 |    252096732 |    252096721 |
bpred_bimod.dir_hits                         86968 |        86972 |        86976 |xxxxxxxxxxxxx |xxxxxxxxxxxxx |xxxxxxxxxxxxx |xxxxxxxxxxxxx |       183469 |       183473 |       183477 |xxxxxxxxxxxxx |xxxxxxxxxxxxx |xxxxxxxxxxxxx |xxxxxxxxxxxxx |       396088 |       396105 |       396110 |xxxxxxxxxxxxx |xxxxxxxxxxxxx |xxxxxxxxxxxxx |xxxxxxxxxxxxx |       832935 |       832953 |       832958 |xxxxxxxxxxxxx |xxxxxxxxxxxxx |xxxxxxxxxxxxx |xxxxxxxxxxxxx |      1782690 |      1782779 |      1782783 |xxxxxxxxxxxxx |xxxxxxxxxxxxx |xxxxxxxxxxxxx |xxxxxxxxxxxxx |      3726258 |      3726307 |      3726312 |xxxxxxxxxxxxx |xxxxxxxxxxxxx |xxxxxxxxxxxxx |xxxxxxxxxxxxx |      7846602 |      7846702 |      7846768 |xxxxxxxxxxxxx |xxxxxxxxxxxxx |xxxxxxxxxxxxx |xxxxxxxxxxxxx |     24447125 |     24447668 |     24447669 |xxxxxxxxxxxxx |xxxxxxxxxxxxx |xxxxxxxxxxxxx |xxxxxxxxxxxxx |     54420261 |     54420596 |     54420604 |xxxxxxxxxxxxx |xxxxxxxxxxxxx |xxxxxxxxxxxxx |xxxxxxxxxxxxx |    116886547 |    116888673 |    116888681 |xxxxxxxxxxxxx |xxxxxxxxxxxxx |xxxxxxxxxxxxx |xxxxxxxxxxxxx |    252095606 |    252096967 |    252096954 |
bpred_bimod.misses                           25573 |        25569 |        25565 |xxxxxxxxxxxxx |xxxxxxxxxxxxx |xxxxxxxxxxxxx |xxxxxxxxxxxxx |        51803 |        51799 |        51795 |xxxxxxxxxxxxx |xxxxxxxxxxxxx |xxxxxxxxxxxxx |xxxxxxxxxxxxx |       118293 |       118276 |       118271 |xxxxxxxxxxxxx |xxxxxxxxxxxxx |xxxxxxxxxxxxx |xxxxxxxxxxxxx |       238947 |       238929 |       238924 |xxxxxxxxxxxxx |xxxxxxxxxxxxx |xxxxxxxxxxxxx |xxxxxxxxxxxxx |       536987 |       536898 |       536894 |xxxxxxxxxxxxx |xxxxxxxxxxxxx |xxxxxxxxxxxxx |xxxxxxxxxxxxx |      1085071 |      1085022 |      1085017 |xxxxxxxxxxxxx |xxxxxxxxxxxxx |xxxxxxxxxxxxx |xxxxxxxxxxxxx |      2301470 |      2301370 |      2301304 |xxxxxxxxxxxxx |xxxxxxxxxxxxx |xxxxxxxxxxxxx |xxxxxxxxxxxxx |      6227419 |      6226876 |      6226875 |xxxxxxxxxxxxx |xxxxxxxxxxxxx |xxxxxxxxxxxxx |xxxxxxxxxxxxx |     12755179 |     12754844 |     12754836 |xxxxxxxxxxxxx |xxxxxxxxxxxxx |xxxxxxxxxxxxx |xxxxxxxxxxxxx |     29074227 |     29072101 |     29072093 |xxxxxxxxxxxxx |xxxxxxxxxxxxx |xxxxxxxxxxxxx |xxxxxxxxxxxxx |     62464113 |     62462752 |     62462765 |
bpred_bimod.jr_hits                             79 |           79 |           79 |xxxxxxxxxxxxx |xxxxxxxxxxxxx |xxxxxxxxxxxxx |xxxxxxxxxxxxx |           87 |           87 |           87 |xxxxxxxxxxxxx |xxxxxxxxxxxxx |xxxxxxxxxxxxx |xxxxxxxxxxxxx |          103 |          103 |          103 |xxxxxxxxxxxxx |xxxxxxxxxxxxx |xxxxxxxxxxxxx |xxxxxxxxxxxxx |          135 |          135 |          135 |xxxxxxxxxxxxx |xxxxxxxxxxxxx |xxxxxxxxxxxxx |xxxxxxxxxxxxx |          199 |          199 |          199 |xxxxxxxxxxxxx |xxxxxxxxxxxxx |xxxxxxxxxxxxx |xxxxxxxxxxxxx |          327 |          327 |          327 |xxxxxxxxxxxxx |xxxxxxxxxxxxx |xxxxxxxxxxxxx |xxxxxxxxxxxxx |          583 |          583 |          583 |xxxxxxxxxxxxx |xxxxxxxxxxxxx |xxxxxxxxxxxxx |xxxxxxxxxxxxx |       525413 |       525413 |       525413 |xxxxxxxxxxxxx |xxxxxxxxxxxxx |xxxxxxxxxxxxx |xxxxxxxxxxxxx |      1050727 |      1050727 |      1050727 |xxxxxxxxxxxxx |xxxxxxxxxxxxx |xxxxxxxxxxxxx |xxxxxxxxxxxxx |      2101355 |      2101355 |      2101355 |xxxxxxxxxxxxx |xxxxxxxxxxxxx |xxxxxxxxxxxxx |xxxxxxxxxxxxx |      4202611 |      4202611 |      4202611 |
bpred_bimod.jr_seen                             80 |           80 |           80 |xxxxxxxxxxxxx |xxxxxxxxxxxxx |xxxxxxxxxxxxx |xxxxxxxxxxxxx |           88 |           88 |           88 |xxxxxxxxxxxxx |xxxxxxxxxxxxx |xxxxxxxxxxxxx |xxxxxxxxxxxxx |          104 |          104 |          104 |xxxxxxxxxxxxx |xxxxxxxxxxxxx |xxxxxxxxxxxxx |xxxxxxxxxxxxx |          136 |          136 |          136 |xxxxxxxxxxxxx |xxxxxxxxxxxxx |xxxxxxxxxxxxx |xxxxxxxxxxxxx |          200 |          200 |          200 |xxxxxxxxxxxxx |xxxxxxxxxxxxx |xxxxxxxxxxxxx |xxxxxxxxxxxxx |          328 |          328 |          328 |xxxxxxxxxxxxx |xxxxxxxxxxxxx |xxxxxxxxxxxxx |xxxxxxxxxxxxx |          584 |          584 |          584 |xxxxxxxxxxxxx |xxxxxxxxxxxxx |xxxxxxxxxxxxx |xxxxxxxxxxxxx |       525414 |       525414 |       525414 |xxxxxxxxxxxxx |xxxxxxxxxxxxx |xxxxxxxxxxxxx |xxxxxxxxxxxxx |      1050728 |      1050728 |      1050728 |xxxxxxxxxxxxx |xxxxxxxxxxxxx |xxxxxxxxxxxxx |xxxxxxxxxxxxx |      2101356 |      2101356 |      2101356 |xxxxxxxxxxxxx |xxxxxxxxxxxxx |xxxxxxxxxxxxx |xxxxxxxxxxxxx |      4202612 |      4202612 |      4202612 |
bpred_bimod.jr_non_ras_hits.PP                   0 |            0 |            0 |xxxxxxxxxxxxx |xxxxxxxxxxxxx |xxxxxxxxxxxxx |xxxxxxxxxxxxx |            0 |            0 |            0 |xxxxxxxxxxxxx |xxxxxxxxxxxxx |xxxxxxxxxxxxx |xxxxxxxxxxxxx |            0 |            0 |            0 |xxxxxxxxxxxxx |xxxxxxxxxxxxx |xxxxxxxxxxxxx |xxxxxxxxxxxxx |            0 |            0 |            0 |xxxxxxxxxxxxx |xxxxxxxxxxxxx |xxxxxxxxxxxxx |xxxxxxxxxxxxx |            0 |            0 |            0 |xxxxxxxxxxxxx |xxxxxxxxxxxxx |xxxxxxxxxxxxx |xxxxxxxxxxxxx |            0 |            0 |            0 |xxxxxxxxxxxxx |xxxxxxxxxxxxx |xxxxxxxxxxxxx |xxxxxxxxxxxxx |            0 |            0 |            0 |xxxxxxxxxxxxx |xxxxxxxxxxxxx |xxxxxxxxxxxxx |xxxxxxxxxxxxx |            0 |            0 |            0 |xxxxxxxxxxxxx |xxxxxxxxxxxxx |xxxxxxxxxxxxx |xxxxxxxxxxxxx |            0 |            0 |            0 |xxxxxxxxxxxxx |xxxxxxxxxxxxx |xxxxxxxxxxxxx |xxxxxxxxxxxxx |            0 |            0 |            0 |xxxxxxxxxxxxx |xxxxxxxxxxxxx |xxxxxxxxxxxxx |xxxxxxxxxxxxx |            0 |            0 |            0 |
bpred_bimod.jr_non_ras_seen.PP                   0 |            0 |            0 |xxxxxxxxxxxxx |xxxxxxxxxxxxx |xxxxxxxxxxxxx |xxxxxxxxxxxxx |            0 |            0 |            0 |xxxxxxxxxxxxx |xxxxxxxxxxxxx |xxxxxxxxxxxxx |xxxxxxxxxxxxx |            0 |            0 |            0 |xxxxxxxxxxxxx |xxxxxxxxxxxxx |xxxxxxxxxxxxx |xxxxxxxxxxxxx |            0 |            0 |            0 |xxxxxxxxxxxxx |xxxxxxxxxxxxx |xxxxxxxxxxxxx |xxxxxxxxxxxxx |            0 |            0 |            0 |xxxxxxxxxxxxx |xxxxxxxxxxxxx |xxxxxxxxxxxxx |xxxxxxxxxxxxx |            0 |            0 |            0 |xxxxxxxxxxxxx |xxxxxxxxxxxxx |xxxxxxxxxxxxx |xxxxxxxxxxxxx |            0 |            0 |            0 |xxxxxxxxxxxxx |xxxxxxxxxxxxx |xxxxxxxxxxxxx |xxxxxxxxxxxxx |            1 |            1 |            1 |xxxxxxxxxxxxx |xxxxxxxxxxxxx |xxxxxxxxxxxxx |xxxxxxxxxxxxx |            1 |            1 |            1 |xxxxxxxxxxxxx |xxxxxxxxxxxxx |xxxxxxxxxxxxx |xxxxxxxxxxxxx |            1 |            1 |            1 |xxxxxxxxxxxxx |xxxxxxxxxxxxx |xxxxxxxxxxxxx |xxxxxxxxxxxxx |            1 |            1 |            1 |
bpred_bimod.bpred_addr_rate                 0.7714 |       0.7715 |       0.7715 |xxxxxxxxxxxxx |xxxxxxxxxxxxx |xxxxxxxxxxxxx |xxxxxxxxxxxxx |       0.7792 |       0.7792 |       0.7792 |xxxxxxxxxxxxx |xxxxxxxxxxxxx |xxxxxxxxxxxxx |xxxxxxxxxxxxx |       0.7697 |       0.7698 |       0.7698 |xxxxxxxxxxxxx |xxxxxxxxxxxxx |xxxxxxxxxxxxx |xxxxxxxxxxxxx |       0.7769 |       0.7770 |       0.7770 |xxxxxxxxxxxxx |xxxxxxxxxxxxx |xxxxxxxxxxxxx |xxxxxxxxxxxxx |       0.7684 |       0.7685 |       0.7685 |xxxxxxxxxxxxx |xxxxxxxxxxxxx |xxxxxxxxxxxxx |xxxxxxxxxxxxx |       0.7744 |       0.7745 |       0.7745 |xxxxxxxxxxxxx |xxxxxxxxxxxxx |xxxxxxxxxxxxx |xxxxxxxxxxxxx |       0.7732 |       0.7732 |       0.7732 |xxxxxxxxxxxxx |xxxxxxxxxxxxx |xxxxxxxxxxxxx |xxxxxxxxxxxxx |       0.7970 |       0.7970 |       0.7970 |xxxxxxxxxxxxx |xxxxxxxxxxxxx |xxxxxxxxxxxxx |xxxxxxxxxxxxx |       0.8101 |       0.8101 |       0.8101 |xxxxxxxxxxxxx |xxxxxxxxxxxxx |xxxxxxxxxxxxx |xxxxxxxxxxxxx |       0.8008 |       0.8008 |       0.8008 |xxxxxxxxxxxxx |xxxxxxxxxxxxx |xxxxxxxxxxxxx |xxxxxxxxxxxxx |       0.8014 |       0.8014 |       0.8014 |
bpred_bimod.bpred_dir_rate                  0.7728 |       0.7728 |       0.7728 |xxxxxxxxxxxxx |xxxxxxxxxxxxx |xxxxxxxxxxxxx |xxxxxxxxxxxxx |       0.7798 |       0.7798 |       0.7799 |xxxxxxxxxxxxx |xxxxxxxxxxxxx |xxxxxxxxxxxxx |xxxxxxxxxxxxx |       0.7700 |       0.7701 |       0.7701 |xxxxxxxxxxxxx |xxxxxxxxxxxxx |xxxxxxxxxxxxx |xxxxxxxxxxxxx |       0.7771 |       0.7771 |       0.7771 |xxxxxxxxxxxxx |xxxxxxxxxxxxx |xxxxxxxxxxxxx |xxxxxxxxxxxxx |       0.7685 |       0.7685 |       0.7685 |xxxxxxxxxxxxx |xxxxxxxxxxxxx |xxxxxxxxxxxxx |xxxxxxxxxxxxx |       0.7745 |       0.7745 |       0.7745 |xxxxxxxxxxxxx |xxxxxxxxxxxxx |xxxxxxxxxxxxx |xxxxxxxxxxxxx |       0.7732 |       0.7732 |       0.7732 |xxxxxxxxxxxxx |xxxxxxxxxxxxx |xxxxxxxxxxxxx |xxxxxxxxxxxxx |       0.7970 |       0.7970 |       0.7970 |xxxxxxxxxxxxx |xxxxxxxxxxxxx |xxxxxxxxxxxxx |xxxxxxxxxxxxx |       0.8101 |       0.8101 |       0.8101 |xxxxxxxxxxxxx |xxxxxxxxxxxxx |xxxxxxxxxxxxx |xxxxxxxxxxxxx |       0.8008 |       0.8008 |       0.8008 |xxxxxxxxxxxxx |xxxxxxxxxxxxx |xxxxxxxxxxxxx |xxxxxxxxxxxxx |       0.8014 |       0.8014 |       0.8014 |
bpred_bimod.bpred_jr_rate                   0.9875 |       0.9875 |       0.9875 |xxxxxxxxxxxxx |xxxxxxxxxxxxx |xxxxxxxxxxxxx |xxxxxxxxxxxxx |       0.9886 |       0.9886 |       0.9886 |xxxxxxxxxxxxx |xxxxxxxxxxxxx |xxxxxxxxxxxxx |xxxxxxxxxxxxx |       0.9904 |       0.9904 |       0.9904 |xxxxxxxxxxxxx |xxxxxxxxxxxxx |xxxxxxxxxxxxx |xxxxxxxxxxxxx |       0.9926 |       0.9926 |       0.9926 |xxxxxxxxxxxxx |xxxxxxxxxxxxx |xxxxxxxxxxxxx |xxxxxxxxxxxxx |       0.9950 |       0.9950 |       0.9950 |xxxxxxxxxxxxx |xxxxxxxxxxxxx |xxxxxxxxxxxxx |xxxxxxxxxxxxx |       0.9970 |       0.9970 |       0.9970 |xxxxxxxxxxxxx |xxxxxxxxxxxxx |xxxxxxxxxxxxx |xxxxxxxxxxxxx |       0.9983 |       0.9983 |       0.9983 |xxxxxxxxxxxxx |xxxxxxxxxxxxx |xxxxxxxxxxxxx |xxxxxxxxxxxxx |       1.0000 |       1.0000 |       1.0000 |xxxxxxxxxxxxx |xxxxxxxxxxxxx |xxxxxxxxxxxxx |xxxxxxxxxxxxx |       1.0000 |       1.0000 |       1.0000 |xxxxxxxxxxxxx |xxxxxxxxxxxxx |xxxxxxxxxxxxx |xxxxxxxxxxxxx |       1.0000 |       1.0000 |       1.0000 |xxxxxxxxxxxxx |xxxxxxxxxxxxx |xxxxxxxxxxxxx |xxxxxxxxxxxxx |       1.0000 |       1.0000 |       1.0000 |
bpred_bimod.bpred_jr_non_ras_rate.PP       <error: |      <error: |      <error: |xxxxxxxxxxxxx |xxxxxxxxxxxxx |xxxxxxxxxxxxx |xxxxxxxxxxxxx |      <error: |      <error: |      <error: |xxxxxxxxxxxxx |xxxxxxxxxxxxx |xxxxxxxxxxxxx |xxxxxxxxxxxxx |      <error: |      <error: |      <error: |xxxxxxxxxxxxx |xxxxxxxxxxxxx |xxxxxxxxxxxxx |xxxxxxxxxxxxx |      <error: |      <error: |      <error: |xxxxxxxxxxxxx |xxxxxxxxxxxxx |xxxxxxxxxxxxx |xxxxxxxxxxxxx |      <error: |      <error: |      <error: |xxxxxxxxxxxxx |xxxxxxxxxxxxx |xxxxxxxxxxxxx |xxxxxxxxxxxxx |      <error: |      <error: |      <error: |xxxxxxxxxxxxx |xxxxxxxxxxxxx |xxxxxxxxxxxxx |xxxxxxxxxxxxx |      <error: |      <error: |      <error: |xxxxxxxxxxxxx |xxxxxxxxxxxxx |xxxxxxxxxxxxx |xxxxxxxxxxxxx |       0.0000 |       0.0000 |       0.0000 |xxxxxxxxxxxxx |xxxxxxxxxxxxx |xxxxxxxxxxxxx |xxxxxxxxxxxxx |       0.0000 |       0.0000 |       0.0000 |xxxxxxxxxxxxx |xxxxxxxxxxxxx |xxxxxxxxxxxxx |xxxxxxxxxxxxx |       0.0000 |       0.0000 |       0.0000 |xxxxxxxxxxxxx |xxxxxxxxxxxxx |xxxxxxxxxxxxx |xxxxxxxxxxxxx |       0.0000 |       0.0000 |       0.0000 |
bpred_bimod.retstack_pushes                     82 |           82 |           82 |xxxxxxxxxxxxx |xxxxxxxxxxxxx |xxxxxxxxxxxxx |xxxxxxxxxxxxx |           90 |           90 |           90 |xxxxxxxxxxxxx |xxxxxxxxxxxxx |xxxxxxxxxxxxx |xxxxxxxxxxxxx |          106 |          106 |          106 |xxxxxxxxxxxxx |xxxxxxxxxxxxx |xxxxxxxxxxxxx |xxxxxxxxxxxxx |          138 |          138 |          138 |xxxxxxxxxxxxx |xxxxxxxxxxxxx |xxxxxxxxxxxxx |xxxxxxxxxxxxx |          202 |          202 |          202 |xxxxxxxxxxxxx |xxxxxxxxxxxxx |xxxxxxxxxxxxx |xxxxxxxxxxxxx |          330 |          330 |          330 |xxxxxxxxxxxxx |xxxxxxxxxxxxx |xxxxxxxxxxxxx |xxxxxxxxxxxxx |          586 |          586 |          586 |xxxxxxxxxxxxx |xxxxxxxxxxxxx |xxxxxxxxxxxxx |xxxxxxxxxxxxx |       525415 |       525415 |       525415 |xxxxxxxxxxxxx |xxxxxxxxxxxxx |xxxxxxxxxxxxx |xxxxxxxxxxxxx |      1050729 |      1050729 |      1050729 |xxxxxxxxxxxxx |xxxxxxxxxxxxx |xxxxxxxxxxxxx |xxxxxxxxxxxxx |      2101357 |      2101357 |      2101357 |xxxxxxxxxxxxx |xxxxxxxxxxxxx |xxxxxxxxxxxxx |xxxxxxxxxxxxx |      4202613 |      4202613 |      4202613 |
bpred_bimod.retstack_pops                       80 |           80 |           80 |xxxxxxxxxxxxx |xxxxxxxxxxxxx |xxxxxxxxxxxxx |xxxxxxxxxxxxx |           88 |           88 |           88 |xxxxxxxxxxxxx |xxxxxxxxxxxxx |xxxxxxxxxxxxx |xxxxxxxxxxxxx |          104 |          104 |          104 |xxxxxxxxxxxxx |xxxxxxxxxxxxx |xxxxxxxxxxxxx |xxxxxxxxxxxxx |          136 |          136 |          136 |xxxxxxxxxxxxx |xxxxxxxxxxxxx |xxxxxxxxxxxxx |xxxxxxxxxxxxx |          200 |          200 |          200 |xxxxxxxxxxxxx |xxxxxxxxxxxxx |xxxxxxxxxxxxx |xxxxxxxxxxxxx |          328 |          328 |          328 |xxxxxxxxxxxxx |xxxxxxxxxxxxx |xxxxxxxxxxxxx |xxxxxxxxxxxxx |          584 |          584 |          584 |xxxxxxxxxxxxx |xxxxxxxxxxxxx |xxxxxxxxxxxxx |xxxxxxxxxxxxx |       525413 |       525413 |       525413 |xxxxxxxxxxxxx |xxxxxxxxxxxxx |xxxxxxxxxxxxx |xxxxxxxxxxxxx |      1050727 |      1050727 |      1050727 |xxxxxxxxxxxxx |xxxxxxxxxxxxx |xxxxxxxxxxxxx |xxxxxxxxxxxxx |      2101355 |      2101355 |      2101355 |xxxxxxxxxxxxx |xxxxxxxxxxxxx |xxxxxxxxxxxxx |xxxxxxxxxxxxx |      4202611 |      4202611 |      4202611 |
bpred_bimod.used_ras.PP                         80 |           80 |           80 |xxxxxxxxxxxxx |xxxxxxxxxxxxx |xxxxxxxxxxxxx |xxxxxxxxxxxxx |           88 |           88 |           88 |xxxxxxxxxxxxx |xxxxxxxxxxxxx |xxxxxxxxxxxxx |xxxxxxxxxxxxx |          104 |          104 |          104 |xxxxxxxxxxxxx |xxxxxxxxxxxxx |xxxxxxxxxxxxx |xxxxxxxxxxxxx |          136 |          136 |          136 |xxxxxxxxxxxxx |xxxxxxxxxxxxx |xxxxxxxxxxxxx |xxxxxxxxxxxxx |          200 |          200 |          200 |xxxxxxxxxxxxx |xxxxxxxxxxxxx |xxxxxxxxxxxxx |xxxxxxxxxxxxx |          328 |          328 |          328 |xxxxxxxxxxxxx |xxxxxxxxxxxxx |xxxxxxxxxxxxx |xxxxxxxxxxxxx |          584 |          584 |          584 |xxxxxxxxxxxxx |xxxxxxxxxxxxx |xxxxxxxxxxxxx |xxxxxxxxxxxxx |       525413 |       525413 |       525413 |xxxxxxxxxxxxx |xxxxxxxxxxxxx |xxxxxxxxxxxxx |xxxxxxxxxxxxx |      1050727 |      1050727 |      1050727 |xxxxxxxxxxxxx |xxxxxxxxxxxxx |xxxxxxxxxxxxx |xxxxxxxxxxxxx |      2101355 |      2101355 |      2101355 |xxxxxxxxxxxxx |xxxxxxxxxxxxx |xxxxxxxxxxxxx |xxxxxxxxxxxxx |      4202611 |      4202611 |      4202611 |
bpred_bimod.ras_hits.PP                         79 |           79 |           79 |xxxxxxxxxxxxx |xxxxxxxxxxxxx |xxxxxxxxxxxxx |xxxxxxxxxxxxx |           87 |           87 |           87 |xxxxxxxxxxxxx |xxxxxxxxxxxxx |xxxxxxxxxxxxx |xxxxxxxxxxxxx |          103 |          103 |          103 |xxxxxxxxxxxxx |xxxxxxxxxxxxx |xxxxxxxxxxxxx |xxxxxxxxxxxxx |          135 |          135 |          135 |xxxxxxxxxxxxx |xxxxxxxxxxxxx |xxxxxxxxxxxxx |xxxxxxxxxxxxx |          199 |          199 |          199 |xxxxxxxxxxxxx |xxxxxxxxxxxxx |xxxxxxxxxxxxx |xxxxxxxxxxxxx |          327 |          327 |          327 |xxxxxxxxxxxxx |xxxxxxxxxxxxx |xxxxxxxxxxxxx |xxxxxxxxxxxxx |          583 |          583 |          583 |xxxxxxxxxxxxx |xxxxxxxxxxxxx |xxxxxxxxxxxxx |xxxxxxxxxxxxx |       525413 |       525413 |       525413 |xxxxxxxxxxxxx |xxxxxxxxxxxxx |xxxxxxxxxxxxx |xxxxxxxxxxxxx |      1050727 |      1050727 |      1050727 |xxxxxxxxxxxxx |xxxxxxxxxxxxx |xxxxxxxxxxxxx |xxxxxxxxxxxxx |      2101355 |      2101355 |      2101355 |xxxxxxxxxxxxx |xxxxxxxxxxxxx |xxxxxxxxxxxxx |xxxxxxxxxxxxx |      4202611 |      4202611 |      4202611 |
bpred_bimod.ras_rate.PP                     0.9875 |       0.9875 |       0.9875 |xxxxxxxxxxxxx |xxxxxxxxxxxxx |xxxxxxxxxxxxx |xxxxxxxxxxxxx |       0.9886 |       0.9886 |       0.9886 |xxxxxxxxxxxxx |xxxxxxxxxxxxx |xxxxxxxxxxxxx |xxxxxxxxxxxxx |       0.9904 |       0.9904 |       0.9904 |xxxxxxxxxxxxx |xxxxxxxxxxxxx |xxxxxxxxxxxxx |xxxxxxxxxxxxx |       0.9926 |       0.9926 |       0.9926 |xxxxxxxxxxxxx |xxxxxxxxxxxxx |xxxxxxxxxxxxx |xxxxxxxxxxxxx |       0.9950 |       0.9950 |       0.9950 |xxxxxxxxxxxxx |xxxxxxxxxxxxx |xxxxxxxxxxxxx |xxxxxxxxxxxxx |       0.9970 |       0.9970 |       0.9970 |xxxxxxxxxxxxx |xxxxxxxxxxxxx |xxxxxxxxxxxxx |xxxxxxxxxxxxx |       0.9983 |       0.9983 |       0.9983 |xxxxxxxxxxxxx |xxxxxxxxxxxxx |xxxxxxxxxxxxx |xxxxxxxxxxxxx |       1.0000 |       1.0000 |       1.0000 |xxxxxxxxxxxxx |xxxxxxxxxxxxx |xxxxxxxxxxxxx |xxxxxxxxxxxxx |       1.0000 |       1.0000 |       1.0000 |xxxxxxxxxxxxx |xxxxxxxxxxxxx |xxxxxxxxxxxxx |xxxxxxxxxxxxx |       1.0000 |       1.0000 |       1.0000 |xxxxxxxxxxxxx |xxxxxxxxxxxxx |xxxxxxxxxxxxx |xxxxxxxxxxxxx |       1.0000 |       1.0000 |       1.0000 |
bpred_2lev.lookups                   xxxxxxxxxxxxx |xxxxxxxxxxxxx |xxxxxxxxxxxxx |       112541 |       112541 |       112541 |       112541 |xxxxxxxxxxxxx |xxxxxxxxxxxxx |xxxxxxxxxxxxx |       235272 |       235272 |       235272 |       235272 |xxxxxxxxxxxxx |xxxxxxxxxxxxx |xxxxxxxxxxxxx |       514381 |       514381 |       514381 |       514381 |xxxxxxxxxxxxx |xxxxxxxxxxxxx |xxxxxxxxxxxxx |      1071882 |      1071882 |      1071882 |      1071882 |xxxxxxxxxxxxx |xxxxxxxxxxxxx |xxxxxxxxxxxxx |      2319677 |      2319677 |      2319677 |      2319677 |xxxxxxxxxxxxx |xxxxxxxxxxxxx |xxxxxxxxxxxxx |      4811329 |      4811329 |      4811329 |      4811329 |xxxxxxxxxxxxx |xxxxxxxxxxxxx |xxxxxxxxxxxxx |     10148072 |     10148072 |     10148072 |     10148072 |xxxxxxxxxxxxx |xxxxxxxxxxxxx |xxxxxxxxxxxxx |     30674544 |     30674544 |     30674544 |     30674544 |xxxxxxxxxxxxx |xxxxxxxxxxxxx |xxxxxxxxxxxxx |     67175440 |     67175440 |     67175440 |     67175440 |xxxxxxxxxxxxx |xxxxxxxxxxxxx |xxxxxxxxxxxxx |    145960774 |    145960774 |    145960774 |    145960774 |xxxxxxxxxxxxx |xxxxxxxxxxxxx |xxxxxxxxxxxxx |    314559719 |    314559719 |    314559719 |    314559719 |
[...]
bpred_2lev.retstack_pushes           xxxxxxxxxxxxx |xxxxxxxxxxxxx |xxxxxxxxxxxxx |           82 |           82 |           82 |           82 |xxxxxxxxxxxxx |xxxxxxxxxxxxx |xxxxxxxxxxxxx |           90 |           90 |           90 |           90 |xxxxxxxxxxxxx |xxxxxxxxxxxxx |xxxxxxxxxxxxx |          106 |          106 |          106 |          106 |xxxxxxxxxxxxx |xxxxxxxxxxxxx |xxxxxxxxxxxxx |          138 |          138 |          138 |          138 |xxxxxxxxxxxxx |xxxxxxxxxxxxx |xxxxxxxxxxxxx |          202 |          202 |          202 |          202 |xxxxxxxxxxxxx |xxxxxxxxxxxxx |xxxxxxxxxxxxx |          330 |          330 |          330 |          330 |xxxxxxxxxxxxx |xxxxxxxxxxxxx |xxxxxxxxxxxxx |          586 |          586 |          586 |          586 |xxxxxxxxxxxxx |xxxxxxxxxxxxx |xxxxxxxxxxxxx |       525415 |       525415 |       525415 |       525415 |xxxxxxxxxxxxx |xxxxxxxxxxxxx |xxxxxxxxxxxxx |      1050729 |      1050729 |      1050729 |      1050729 |xxxxxxxxxxxxx |xxxxxxxxxxxxx |xxxxxxxxxxxxx |      2101357 |      2101357 |      2101357 |      2101357 |xxxxxxxxxxxxx |xxxxxxxxxxxxx |xxxxxxxxxxxxx |      4202613 |      4202613 |      4202613 |      4202613 |
bpred_2lev.retstack_pops             xxxxxxxxxxxxx |xxxxxxxxxxxxx |xxxxxxxxxxxxx |           80 |           80 |           80 |           80 |xxxxxxxxxxxxx |xxxxxxxxxxxxx |xxxxxxxxxxxxx |           88 |           88 |           88 |           88 |xxxxxxxxxxxxx |xxxxxxxxxxxxx |xxxxxxxxxxxxx |          104 |          104 |          104 |          104 |xxxxxxxxxxxxx |xxxxxxxxxxxxx |xxxxxxxxxxxxx |          136 |          136 |          136 |          136 |xxxxxxxxxxxxx |xxxxxxxxxxxxx |xxxxxxxxxxxxx |          200 |          200 |          200 |          200 |xxxxxxxxxxxxx |xxxxxxxxxxxxx |xxxxxxxxxxxxx |          328 |          328 |          328 |          328 |xxxxxxxxxxxxx |xxxxxxxxxxxxx |xxxxxxxxxxxxx |          584 |          584 |          584 |          584 |xxxxxxxxxxxxx |xxxxxxxxxxxxx |xxxxxxxxxxxxx |       525413 |       525413 |       525413 |       525413 |xxxxxxxxxxxxx |xxxxxxxxxxxxx |xxxxxxxxxxxxx |      1050727 |      1050727 |      1050727 |      1050727 |xxxxxxxxxxxxx |xxxxxxxxxxxxx |xxxxxxxxxxxxx |      2101355 |      2101355 |      2101355 |      2101355 |xxxxxxxxxxxxx |xxxxxxxxxxxxx |xxxxxxxxxxxxx |      4202611 |      4202611 |      4202611 |      4202611 |
bpred_2lev.used_ras.PP               xxxxxxxxxxxxx |xxxxxxxxxxxxx |xxxxxxxxxxxxx |           80 |           80 |           80 |           80 |xxxxxxxxxxxxx |xxxxxxxxxxxxx |xxxxxxxxxxxxx |           88 |           88 |           88 |           88 |xxxxxxxxxxxxx |xxxxxxxxxxxxx |xxxxxxxxxxxxx |          104 |          104 |          104 |          104 |xxxxxxxxxxxxx |xxxxxxxxxxxxx |xxxxxxxxxxxxx |          136 |          136 |          136 |          136 |xxxxxxxxxxxxx |xxxxxxxxxxxxx |xxxxxxxxxxxxx |          200 |          200 |          200 |          200 |xxxxxxxxxxxxx |xxxxxxxxxxxxx |xxxxxxxxxxxxx |          328 |          328 |          328 |          328 |xxxxxxxxxxxxx |xxxxxxxxxxxxx |xxxxxxxxxxxxx |          584 |          584 |          584 |          584 |xxxxxxxxxxxxx |xxxxxxxxxxxxx |xxxxxxxxxxxxx |       525413 |       525413 |       525413 |       525413 |xxxxxxxxxxxxx |xxxxxxxxxxxxx |xxxxxxxxxxxxx |      1050727 |      1050727 |      1050727 |      1050727 |xxxxxxxxxxxxx |xxxxxxxxxxxxx |xxxxxxxxxxxxx |      2101355 |      2101355 |      2101355 |      2101355 |xxxxxxxxxxxxx |xxxxxxxxxxxxx |xxxxxxxxxxxxx |      4202611 |      4202611 |      4202611 |      4202611 |
bpred_2lev.ras_hits.PP               xxxxxxxxxxxxx |xxxxxxxxxxxxx |xxxxxxxxxxxxx |           79 |           79 |           79 |           79 |xxxxxxxxxxxxx |xxxxxxxxxxxxx |xxxxxxxxxxxxx |           87 |           87 |           87 |           87 |xxxxxxxxxxxxx |xxxxxxxxxxxxx |xxxxxxxxxxxxx |          103 |          103 |          103 |          103 |xxxxxxxxxxxxx |xxxxxxxxxxxxx |xxxxxxxxxxxxx |          135 |          135 |          135 |          135 |xxxxxxxxxxxxx |xxxxxxxxxxxxx |xxxxxxxxxxxxx |          199 |          199 |          199 |          199 |xxxxxxxxxxxxx |xxxxxxxxxxxxx |xxxxxxxxxxxxx |          327 |          327 |          327 |          327 |xxxxxxxxxxxxx |xxxxxxxxxxxxx |xxxxxxxxxxxxx |          583 |          583 |          583 |          583 |xxxxxxxxxxxxx |xxxxxxxxxxxxx |xxxxxxxxxxxxx |       525413 |       525413 |       525413 |       525413 |xxxxxxxxxxxxx |xxxxxxxxxxxxx |xxxxxxxxxxxxx |      1050727 |      1050727 |      1050727 |      1050727 |xxxxxxxxxxxxx |xxxxxxxxxxxxx |xxxxxxxxxxxxx |      2101355 |      2101355 |      2101355 |      2101355 |xxxxxxxxxxxxx |xxxxxxxxxxxxx |xxxxxxxxxxxxx |      4202611 |      4202611 |      4202611 |      4202611 |
bpred_2lev.ras_rate.PP               xxxxxxxxxxxxx |xxxxxxxxxxxxx |xxxxxxxxxxxxx |       0.9875 |       0.9875 |       0.9875 |       0.9875 |xxxxxxxxxxxxx |xxxxxxxxxxxxx |xxxxxxxxxxxxx |       0.9886 |       0.9886 |       0.9886 |       0.9886 |xxxxxxxxxxxxx |xxxxxxxxxxxxx |xxxxxxxxxxxxx |       0.9904 |       0.9904 |       0.9904 |       0.9904 |xxxxxxxxxxxxx |xxxxxxxxxxxxx |xxxxxxxxxxxxx |       0.9926 |       0.9926 |       0.9926 |       0.9926 |xxxxxxxxxxxxx |xxxxxxxxxxxxx |xxxxxxxxxxxxx |       0.9950 |       0.9950 |       0.9950 |       0.9950 |xxxxxxxxxxxxx |xxxxxxxxxxxxx |xxxxxxxxxxxxx |       0.9970 |       0.9970 |       0.9970 |       0.9970 |xxxxxxxxxxxxx |xxxxxxxxxxxxx |xxxxxxxxxxxxx |       0.9983 |       0.9983 |       0.9983 |       0.9983 |xxxxxxxxxxxxx |xxxxxxxxxxxxx |xxxxxxxxxxxxx |       1.0000 |       1.0000 |       1.0000 |       1.0000 |xxxxxxxxxxxxx |xxxxxxxxxxxxx |xxxxxxxxxxxxx |       1.0000 |       1.0000 |       1.0000 |       1.0000 |xxxxxxxxxxxxx |xxxxxxxxxxxxx |xxxxxxxxxxxxx |       1.0000 |       1.0000 |       1.0000 |       1.0000 |xxxxxxxxxxxxx |xxxxxxxxxxxxx |xxxxxxxxxxxxx |       1.0000 |       1.0000 |       1.0000 |       1.0000 |

Command list: 
	sslittle-na-sstrix-gcc -Wall -O3 -funroll-loops -finline-functions  -DRANDOM_SIZE=4096 -DOFFSET=5 -DSORT=multi_mergesort sorts/multi_mergesort1291415546.c simpleMain.c -o multi_mergesort1427026780
	sim-cache -cache:dl1 dl1:256:32:1:l -cache:dl2 dl2:131072:32:1:l -cache:il1 il1:256:32:1:l -cache:il2 dl2 multi_mergesort1427026780
	sim-cache -cache:dl1 dl1:256:32:1:l -cache:dl2 dl2:65536:32:1:l -cache:il1 il1:256:32:1:l -cache:il2 dl2 multi_mergesort1427026780
	sim-cache -cache:dl1 dl1:1:32:256:l -cache:dl2 dl2:1:32:131072:l -cache:il1 il1:1:32:256:l -cache:il2 dl2 multi_mergesort1427026780
	sim-cache -cache:dl1 dl1:1:32:256:l -cache:dl2 dl2:1:32:65536:l -cache:il1 il1:1:32:256:l -cache:il2 dl2 multi_mergesort1427026780
	sim-bpred -bpred bimod -bpred:bimod 512 multi_mergesort1427026780
	sim-bpred -bpred bimod -bpred:bimod 1024 multi_mergesort1427026780
	sim-bpred -bpred bimod -bpred:bimod 2048 multi_mergesort1427026780
	sim-bpred -bpred 2lev -bpred:2lev 1 512 10 1 multi_mergesort1427026780
	sim-bpred -bpred 2lev -bpred:2lev 1 1024 10 1 multi_mergesort1427026780
	sim-bpred -bpred 2lev -bpred:2lev 1 2048 10 1 multi_mergesort1427026780
	sim-bpred -bpred 2lev -bpred:2lev 1 4096 10 1 multi_mergesort1427026780
	sslittle-na-sstrix-gcc -Wall -O3 -funroll-loops -finline-functions  -DRANDOM_SIZE=8192 -DOFFSET=5 -DSORT=multi_mergesort sorts/multi_mergesort1291415546.c simpleMain.c -o multi_mergesort1427026780
	sim-cache -cache:dl1 dl1:256:32:1:l -cache:dl2 dl2:131072:32:1:l -cache:il1 il1:256:32:1:l -cache:il2 dl2 multi_mergesort1427026780
	sim-cache -cache:dl1 dl1:256:32:1:l -cache:dl2 dl2:65536:32:1:l -cache:il1 il1:256:32:1:l -cache:il2 dl2 multi_mergesort1427026780
	sim-cache -cache:dl1 dl1:1:32:256:l -cache:dl2 dl2:1:32:131072:l -cache:il1 il1:1:32:256:l -cache:il2 dl2 multi_mergesort1427026780
	sim-cache -cache:dl1 dl1:1:32:256:l -cache:dl2 dl2:1:32:65536:l -cache:il1 il1:1:32:256:l -cache:il2 dl2 multi_mergesort1427026780
	sim-bpred -bpred bimod -bpred:bimod 512 multi_mergesort1427026780
	sim-bpred -bpred bimod -bpred:bimod 1024 multi_mergesort1427026780
	sim-bpred -bpred bimod -bpred:bimod 2048 multi_mergesort1427026780
	sim-bpred -bpred 2lev -bpred:2lev 1 512 10 1 multi_mergesort1427026780
	sim-bpred -bpred 2lev -bpred:2lev 1 1024 10 1 multi_mergesort1427026780
	sim-bpred -bpred 2lev -bpred:2lev 1 2048 10 1 multi_mergesort1427026780
	sim-bpred -bpred 2lev -bpred:2lev 1 4096 10 1 multi_mergesort1427026780
	sslittle-na-sstrix-gcc -Wall -O3 -funroll-loops -finline-functions  -DRANDOM_SIZE=16384 -DOFFSET=5 -DSORT=multi_mergesort sorts/multi_mergesort1291415546.c simpleMain.c -o multi_mergesort1427026780
	sim-cache -cache:dl1 dl1:256:32:1:l -cache:dl2 dl2:131072:32:1:l -cache:il1 il1:256:32:1:l -cache:il2 dl2 multi_mergesort1427026780
	sim-cache -cache:dl1 dl1:256:32:1:l -cache:dl2 dl2:65536:32:1:l -cache:il1 il1:256:32:1:l -cache:il2 dl2 multi_mergesort1427026780
	sim-cache -cache:dl1 dl1:1:32:256:l -cache:dl2 dl2:1:32:131072:l -cache:il1 il1:1:32:256:l -cache:il2 dl2 multi_mergesort1427026780
	sim-cache -cache:dl1 dl1:1:32:256:l -cache:dl2 dl2:1:32:65536:l -cache:il1 il1:1:32:256:l -cache:il2 dl2 multi_mergesort1427026780
	sim-bpred -bpred bimod -bpred:bimod 512 multi_mergesort1427026780
	sim-bpred -bpred bimod -bpred:bimod 1024 multi_mergesort1427026780
	sim-bpred -bpred bimod -bpred:bimod 2048 multi_mergesort1427026780
	sim-bpred -bpred 2lev -bpred:2lev 1 512 10 1 multi_mergesort1427026780
	sim-bpred -bpred 2lev -bpred:2lev 1 1024 10 1 multi_mergesort1427026780
	sim-bpred -bpred 2lev -bpred:2lev 1 2048 10 1 multi_mergesort1427026780
	sim-bpred -bpred 2lev -bpred:2lev 1 4096 10 1 multi_mergesort1427026780
	sslittle-na-sstrix-gcc -Wall -O3 -funroll-loops -finline-functions  -DRANDOM_SIZE=32768 -DOFFSET=5 -DSORT=multi_mergesort sorts/multi_mergesort1291415546.c simpleMain.c -o multi_mergesort1427026780
	sim-cache -cache:dl1 dl1:256:32:1:l -cache:dl2 dl2:131072:32:1:l -cache:il1 il1:256:32:1:l -cache:il2 dl2 multi_mergesort1427026780
	sim-cache -cache:dl1 dl1:256:32:1:l -cache:dl2 dl2:65536:32:1:l -cache:il1 il1:256:32:1:l -cache:il2 dl2 multi_mergesort1427026780
	sim-cache -cache:dl1 dl1:1:32:256:l -cache:dl2 dl2:1:32:131072:l -cache:il1 il1:1:32:256:l -cache:il2 dl2 multi_mergesort1427026780
	sim-cache -cache:dl1 dl1:1:32:256:l -cache:dl2 dl2:1:32:65536:l -cache:il1 il1:1:32:256:l -cache:il2 dl2 multi_mergesort1427026780
	sim-bpred -bpred bimod -bpred:bimod 512 multi_mergesort1427026780
	sim-bpred -bpred bimod -bpred:bimod 1024 multi_mergesort1427026780
	sim-bpred -bpred bimod -bpred:bimod 2048 multi_mergesort1427026780
	sim-bpred -bpred 2lev -bpred:2lev 1 512 10 1 multi_mergesort1427026780
	sim-bpred -bpred 2lev -bpred:2lev 1 1024 10 1 multi_mergesort1427026780
	sim-bpred -bpred 2lev -bpred:2lev 1 2048 10 1 multi_mergesort1427026780
	sim-bpred -bpred 2lev -bpred:2lev 1 4096 10 1 multi_mergesort1427026780
	sslittle-na-sstrix-gcc -Wall -O3 -funroll-loops -finline-functions  -DRANDOM_SIZE=65536 -DOFFSET=5 -DSORT=multi_mergesort sorts/multi_mergesort1291415546.c simpleMain.c -o multi_mergesort1427026780
	sim-cache -cache:dl1 dl1:256:32:1:l -cache:dl2 dl2:131072:32:1:l -cache:il1 il1:256:32:1:l -cache:il2 dl2 multi_mergesort1427026780
	sim-cache -cache:dl1 dl1:256:32:1:l -cache:dl2 dl2:65536:32:1:l -cache:il1 il1:256:32:1:l -cache:il2 dl2 multi_mergesort1427026780
	sim-cache -cache:dl1 dl1:1:32:256:l -cache:dl2 dl2:1:32:131072:l -cache:il1 il1:1:32:256:l -cache:il2 dl2 multi_mergesort1427026780
	sim-cache -cache:dl1 dl1:1:32:256:l -cache:dl2 dl2:1:32:65536:l -cache:il1 il1:1:32:256:l -cache:il2 dl2 multi_mergesort1427026780
	sim-bpred -bpred bimod -bpred:bimod 512 multi_mergesort1427026780
	sim-bpred -bpred bimod -bpred:bimod 1024 multi_mergesort1427026780
	sim-bpred -bpred bimod -bpred:bimod 2048 multi_mergesort1427026780
	sim-bpred -bpred 2lev -bpred:2lev 1 512 10 1 multi_mergesort1427026780
	sim-bpred -bpred 2lev -bpred:2lev 1 1024 10 1 multi_mergesort1427026780
	sim-bpred -bpred 2lev -bpred:2lev 1 2048 10 1 multi_mergesort1427026780
	sim-bpred -bpred 2lev -bpred:2lev 1 4096 10 1 multi_mergesort1427026780
	sslittle-na-sstrix-gcc -Wall -O3 -funroll-loops -finline-functions  -DRANDOM_SIZE=131072 -DOFFSET=5 -DSORT=multi_mergesort sorts/multi_mergesort1291415546.c simpleMain.c -o multi_mergesort1427026780
	sim-cache -cache:dl1 dl1:256:32:1:l -cache:dl2 dl2:131072:32:1:l -cache:il1 il1:256:32:1:l -cache:il2 dl2 multi_mergesort1427026780
	sim-cache -cache:dl1 dl1:256:32:1:l -cache:dl2 dl2:65536:32:1:l -cache:il1 il1:256:32:1:l -cache:il2 dl2 multi_mergesort1427026780
	sim-cache -cache:dl1 dl1:1:32:256:l -cache:dl2 dl2:1:32:131072:l -cache:il1 il1:1:32:256:l -cache:il2 dl2 multi_mergesort1427026780
	sim-cache -cache:dl1 dl1:1:32:256:l -cache:dl2 dl2:1:32:65536:l -cache:il1 il1:1:32:256:l -cache:il2 dl2 multi_mergesort1427026780
	sim-bpred -bpred bimod -bpred:bimod 512 multi_mergesort1427026780
	sim-bpred -bpred bimod -bpred:bimod 1024 multi_mergesort1427026780
	sim-bpred -bpred bimod -bpred:bimod 2048 multi_mergesort1427026780
	sim-bpred -bpred 2lev -bpred:2lev 1 512 10 1 multi_mergesort1427026780
	sim-bpred -bpred 2lev -bpred:2lev 1 1024 10 1 multi_mergesort1427026780
	sim-bpred -bpred 2lev -bpred:2lev 1 2048 10 1 multi_mergesort1427026780
	sim-bpred -bpred 2lev -bpred:2lev 1 4096 10 1 multi_mergesort1427026780
	sslittle-na-sstrix-gcc -Wall -O3 -funroll-loops -finline-functions  -DRANDOM_SIZE=262144 -DOFFSET=5 -DSORT=multi_mergesort sorts/multi_mergesort1291415546.c simpleMain.c -o multi_mergesort1427026780
	sim-cache -cache:dl1 dl1:256:32:1:l -cache:dl2 dl2:131072:32:1:l -cache:il1 il1:256:32:1:l -cache:il2 dl2 multi_mergesort1427026780
	sim-cache -cache:dl1 dl1:256:32:1:l -cache:dl2 dl2:65536:32:1:l -cache:il1 il1:256:32:1:l -cache:il2 dl2 multi_mergesort1427026780
	sim-cache -cache:dl1 dl1:1:32:256:l -cache:dl2 dl2:1:32:131072:l -cache:il1 il1:1:32:256:l -cache:il2 dl2 multi_mergesort1427026780
	sim-cache -cache:dl1 dl1:1:32:256:l -cache:dl2 dl2:1:32:65536:l -cache:il1 il1:1:32:256:l -cache:il2 dl2 multi_mergesort1427026780
	sim-bpred -bpred bimod -bpred:bimod 512 multi_mergesort1427026780
	sim-bpred -bpred bimod -bpred:bimod 1024 multi_mergesort1427026780
	sim-bpred -bpred bimod -bpred:bimod 2048 multi_mergesort1427026780
	sim-bpred -bpred 2lev -bpred:2lev 1 512 10 1 multi_mergesort1427026780
	sim-bpred -bpred 2lev -bpred:2lev 1 1024 10 1 multi_mergesort1427026780
	sim-bpred -bpred 2lev -bpred:2lev 1 2048 10 1 multi_mergesort1427026780
	sim-bpred -bpred 2lev -bpred:2lev 1 4096 10 1 multi_mergesort1427026780
	sslittle-na-sstrix-gcc -Wall -O3 -funroll-loops -finline-functions  -DRANDOM_SIZE=524288 -DOFFSET=5 -DSORT=multi_mergesort sorts/multi_mergesort1291415546.c simpleMain.c -o multi_mergesort1427026780
	sim-cache -cache:dl1 dl1:256:32:1:l -cache:dl2 dl2:131072:32:1:l -cache:il1 il1:256:32:1:l -cache:il2 dl2 multi_mergesort1427026780
	sim-cache -cache:dl1 dl1:256:32:1:l -cache:dl2 dl2:65536:32:1:l -cache:il1 il1:256:32:1:l -cache:il2 dl2 multi_mergesort1427026780
	sim-cache -cache:dl1 dl1:1:32:256:l -cache:dl2 dl2:1:32:131072:l -cache:il1 il1:1:32:256:l -cache:il2 dl2 multi_mergesort1427026780
	sim-cache -cache:dl1 dl1:1:32:256:l -cache:dl2 dl2:1:32:65536:l -cache:il1 il1:1:32:256:l -cache:il2 dl2 multi_mergesort1427026780
	sim-bpred -bpred bimod -bpred:bimod 512 multi_mergesort1427026780
	sim-bpred -bpred bimod -bpred:bimod 1024 multi_mergesort1427026780
	sim-bpred -bpred bimod -bpred:bimod 2048 multi_mergesort1427026780
	sim-bpred -bpred 2lev -bpred:2lev 1 512 10 1 multi_mergesort1427026780
	sim-bpred -bpred 2lev -bpred:2lev 1 1024 10 1 multi_mergesort1427026780
	sim-bpred -bpred 2lev -bpred:2lev 1 2048 10 1 multi_mergesort1427026780
	sim-bpred -bpred 2lev -bpred:2lev 1 4096 10 1 multi_mergesort1427026780
	sslittle-na-sstrix-gcc -Wall -O3 -funroll-loops -finline-functions  -DRANDOM_SIZE=1048576 -DOFFSET=5 -DSORT=multi_mergesort sorts/multi_mergesort1291415546.c simpleMain.c -o multi_mergesort1427026780
	sim-cache -cache:dl1 dl1:256:32:1:l -cache:dl2 dl2:131072:32:1:l -cache:il1 il1:256:32:1:l -cache:il2 dl2 multi_mergesort1427026780
	sim-cache -cache:dl1 dl1:256:32:1:l -cache:dl2 dl2:65536:32:1:l -cache:il1 il1:256:32:1:l -cache:il2 dl2 multi_mergesort1427026780
	sim-cache -cache:dl1 dl1:1:32:256:l -cache:dl2 dl2:1:32:131072:l -cache:il1 il1:1:32:256:l -cache:il2 dl2 multi_mergesort1427026780
	sim-cache -cache:dl1 dl1:1:32:256:l -cache:dl2 dl2:1:32:65536:l -cache:il1 il1:1:32:256:l -cache:il2 dl2 multi_mergesort1427026780
	sim-bpred -bpred bimod -bpred:bimod 512 multi_mergesort1427026780
	sim-bpred -bpred bimod -bpred:bimod 1024 multi_mergesort1427026780
	sim-bpred -bpred bimod -bpred:bimod 2048 multi_mergesort1427026780
	sim-bpred -bpred 2lev -bpred:2lev 1 512 10 1 multi_mergesort1427026780
	sim-bpred -bpred 2lev -bpred:2lev 1 1024 10 1 multi_mergesort1427026780
	sim-bpred -bpred 2lev -bpred:2lev 1 2048 10 1 multi_mergesort1427026780
	sim-bpred -bpred 2lev -bpred:2lev 1 4096 10 1 multi_mergesort1427026780
	sslittle-na-sstrix-gcc -Wall -O3 -funroll-loops -finline-functions  -DRANDOM_SIZE=2097152 -DOFFSET=5 -DSORT=multi_mergesort sorts/multi_mergesort1291415546.c simpleMain.c -o multi_mergesort1427026780
	sim-cache -cache:dl1 dl1:256:32:1:l -cache:dl2 dl2:131072:32:1:l -cache:il1 il1:256:32:1:l -cache:il2 dl2 multi_mergesort1427026780
	sim-cache -cache:dl1 dl1:256:32:1:l -cache:dl2 dl2:65536:32:1:l -cache:il1 il1:256:32:1:l -cache:il2 dl2 multi_mergesort1427026780
	sim-cache -cache:dl1 dl1:1:32:256:l -cache:dl2 dl2:1:32:131072:l -cache:il1 il1:1:32:256:l -cache:il2 dl2 multi_mergesort1427026780
	sim-cache -cache:dl1 dl1:1:32:256:l -cache:dl2 dl2:1:32:65536:l -cache:il1 il1:1:32:256:l -cache:il2 dl2 multi_mergesort1427026780
	sim-bpred -bpred bimod -bpred:bimod 512 multi_mergesort1427026780
	sim-bpred -bpred bimod -bpred:bimod 1024 multi_mergesort1427026780
	sim-bpred -bpred bimod -bpred:bimod 2048 multi_mergesort1427026780
	sim-bpred -bpred 2lev -bpred:2lev 1 512 10 1 multi_mergesort1427026780
	sim-bpred -bpred 2lev -bpred:2lev 1 1024 10 1 multi_mergesort1427026780
	sim-bpred -bpred 2lev -bpred:2lev 1 2048 10 1 multi_mergesort1427026780
	sim-bpred -bpred 2lev -bpred:2lev 1 4096 10 1 multi_mergesort1427026780
	sslittle-na-sstrix-gcc -Wall -O3 -funroll-loops -finline-functions  -DRANDOM_SIZE=4194304 -DOFFSET=5 -DSORT=multi_mergesort sorts/multi_mergesort1291415546.c simpleMain.c -o multi_mergesort1427026780
	sim-cache -cache:dl1 dl1:256:32:1:l -cache:dl2 dl2:131072:32:1:l -cache:il1 il1:256:32:1:l -cache:il2 dl2 multi_mergesort1427026780
	sim-cache -cache:dl1 dl1:256:32:1:l -cache:dl2 dl2:65536:32:1:l -cache:il1 il1:256:32:1:l -cache:il2 dl2 multi_mergesort1427026780
	sim-cache -cache:dl1 dl1:1:32:256:l -cache:dl2 dl2:1:32:131072:l -cache:il1 il1:1:32:256:l -cache:il2 dl2 multi_mergesort1427026780
	sim-cache -cache:dl1 dl1:1:32:256:l -cache:dl2 dl2:1:32:65536:l -cache:il1 il1:1:32:256:l -cache:il2 dl2 multi_mergesort1427026780
	sim-bpred -bpred bimod -bpred:bimod 512 multi_mergesort1427026780
	sim-bpred -bpred bimod -bpred:bimod 1024 multi_mergesort1427026780
	sim-bpred -bpred bimod -bpred:bimod 2048 multi_mergesort1427026780
	sim-bpred -bpred 2lev -bpred:2lev 1 512 10 1 multi_mergesort1427026780
	sim-bpred -bpred 2lev -bpred:2lev 1 1024 10 1 multi_mergesort1427026780
	sim-bpred -bpred 2lev -bpred:2lev 1 2048 10 1 multi_mergesort1427026780
	sim-bpred -bpred 2lev -bpred:2lev 1 4096 10 1 multi_mergesort1427026780
