Thu Jul 21 03:46:40 2005
Run as: "./do_simple -c random.org6 -o 6 multi_mergesort"
-------------------------------------------------------------------------------------------------
sim-cache                                     4096 |         4096 |         4096 |         4096 |         8192 |         8192 |         8192 |         8192 |        16384 |        16384 |        16384 |        16384 |        32768 |        32768 |        32768 |        32768 |        65536 |        65536 |        65536 |        65536 |       131072 |       131072 |       131072 |       131072 |       262144 |       262144 |       262144 |       262144 |       524288 |       524288 |       524288 |       524288 |      1048576 |      1048576 |      1048576 |      1048576 |      2097152 |      2097152 |      2097152 |      2097152 |      4194304 |      4194304 |      4194304 |      4194304 |
-cache:dl1 dl1:256:32:1:l -cache:dl2 dl2:131072:32:1:l -cache:il1 il1:256:32:1:l -cache:il2 dl2
-cache:dl1 dl1:256:32:1:l -cache:dl2 dl2:65536:32:1:l -cache:il1 il1:256:32:1:l -cache:il2 dl2
-cache:dl1 dl1:1:32:256:l -cache:dl2 dl2:1:32:131072:l -cache:il1 il1:1:32:256:l -cache:il2 dl2
-cache:dl1 dl1:1:32:256:l -cache:dl2 dl2:1:32:65536:l -cache:il1 il1:1:32:256:l -cache:il2 dl2
-------------------------------------------------------------------------------------------------
sim_num_insn                                860013 |       860013 |       860013 |       860013 |      1749197 |      1749197 |      1749197 |      1749197 |      3960793 |      3960793 |      3960793 |      3960793 |      8064655 |      8064655 |      8064655 |      8064655 |     17983795 |     17983795 |     17983795 |     17983795 |     36575577 |     36575577 |     36575577 |     36575577 |     77475184 |     77475184 |     77475184 |     77475184 |    223416661 |    223416661 |    223416661 |    223416661 |    473222019 |    473222019 |    473222019 |    473222019 |   1035823577 |   1035823577 |   1035823577 |   1035823577 |   2186733895 |   2186733895 |   2186733895 |   2186733895 |
sim_num_refs                                228979 |       228979 |       228979 |       228979 |       471693 |       471693 |       471693 |       471693 |      1051829 |      1051829 |      1051829 |      1051829 |      2171381 |      2171381 |      2171381 |      2171381 |      4784941 |      4784941 |      4784941 |      4784941 |      9855818 |      9855818 |      9855818 |      9855818 |     20888195 |     20888195 |     20888195 |     20888195 |     60949765 |     60949765 |     60949765 |     60949765 |    130162217 |    130162217 |    130162217 |    130162217 |    283211773 |    283211773 |    283211773 |    283211773 |    604326378 |    604326378 |    604326378 |    604326378 |
sim_elapsed_time                                 1 |            1 |           10 |            6 |            1 |            1 |           16 |            8 |            1 |            1 |           26 |           14 |            2 |            2 |           48 |           24 |            5 |            5 |           89 |           44 |           10 |           10 |          161 |           75 |           21 |           21 |          278 |          107 |           60 |           60 |          403 |          148 |          128 |          128 |          472 |          219 |          280 |          280 |          632 |          382 |          591 |          589 |          962 |          712 |
sim_inst_rate                          860013.0000 |  860013.0000 |   86001.3000 |  143335.5000 | 1749197.0000 | 1749197.0000 |  109324.8125 |  218649.6250 | 3960793.0000 | 3960793.0000 |  152338.1923 |  282913.7857 | 4032327.5000 | 4032327.5000 |  168013.6458 |  336027.2917 | 3596759.0000 | 3596759.0000 |  202065.1124 |  408722.6136 | 3657557.7000 | 3657557.7000 |  227177.4969 |  487674.3600 | 3689294.4762 | 3689294.4762 |  278687.7122 |  724067.1402 | 3723611.0167 | 3723611.0167 |  554383.7742 | 1509572.0338 | 3697047.0234 | 3697047.0234 | 1002589.0233 | 2160831.1370 | 3699369.9179 | 3699369.9179 | 1638961.3560 | 2711580.0445 | 3700057.3519 | 3712621.2139 | 2273112.1570 | 3071255.4705 |
il1.accesses                                860013 |       860013 |       860013 |       860013 |      1749197 |      1749197 |      1749197 |      1749197 |      3960793 |      3960793 |      3960793 |      3960793 |      8064655 |      8064655 |      8064655 |      8064655 |     17983795 |     17983795 |     17983795 |     17983795 |     36575577 |     36575577 |     36575577 |     36575577 |     77475184 |     77475184 |     77475184 |     77475184 |    223416661 |    223416661 |    223416661 |    223416661 |    473222019 |    473222019 |    473222019 |    473222019 |   1035823577 |   1035823577 |   1035823577 |   1035823577 |   2186733895 |   2186733895 |   2186733895 |   2186733895 |
il1.hits                                    859329 |       859329 |       859434 |       859434 |      1748468 |      1748468 |      1748597 |      1748597 |      3960049 |      3960049 |      3960221 |      3960221 |      8063779 |      8063779 |      8064052 |      8064052 |     17982749 |     17982749 |     17983214 |     17983214 |     36574123 |     36574123 |     36574973 |     36574973 |     77473472 |     77473472 |     77474583 |     77474583 |    222104932 |    222104932 |    223415771 |    223415771 |    470599526 |    470599526 |    473221085 |    473221085 |   1030579651 |   1030579651 |   1035822659 |   1035822659 |   2176247054 |   2176247054 |   2186732958 |   2186732958 |
il1.misses                                     684 |          684 |          579 |          579 |          729 |          729 |          600 |          600 |          744 |          744 |          572 |          572 |          876 |          876 |          603 |          603 |         1046 |         1046 |          581 |          581 |         1454 |         1454 |          604 |          604 |         1712 |         1712 |          601 |          601 |      1311729 |      1311729 |          890 |          890 |      2622493 |      2622493 |          934 |          934 |      5243926 |      5243926 |          918 |          918 |     10486841 |     10486841 |          937 |          937 |
il1.replacements                               450 |          450 |          323 |          323 |          493 |          493 |          344 |          344 |          509 |          509 |          316 |          316 |          640 |          640 |          347 |          347 |          811 |          811 |          325 |          325 |         1218 |         1218 |          348 |          348 |         1475 |         1475 |          345 |          345 |      1311473 |      1311473 |          634 |          634 |      2622237 |      2622237 |          678 |          678 |      5243670 |      5243670 |          662 |          662 |     10486585 |     10486585 |          681 |          681 |
il1.writebacks                                   0 |            0 |            0 |            0 |            0 |            0 |            0 |            0 |            0 |            0 |            0 |            0 |            0 |            0 |            0 |            0 |            0 |            0 |            0 |            0 |            0 |            0 |            0 |            0 |            0 |            0 |            0 |            0 |            0 |            0 |            0 |            0 |            0 |            0 |            0 |            0 |            0 |            0 |            0 |            0 |            0 |            0 |            0 |            0 |
il1.invalidations                                0 |            0 |            0 |            0 |            0 |            0 |            0 |            0 |            0 |            0 |            0 |            0 |            0 |            0 |            0 |            0 |            0 |            0 |            0 |            0 |            0 |            0 |            0 |            0 |            0 |            0 |            0 |            0 |            0 |            0 |            0 |            0 |            0 |            0 |            0 |            0 |            0 |            0 |            0 |            0 |            0 |            0 |            0 |            0 |
il1.miss_rate                               0.0008 |       0.0008 |       0.0007 |       0.0007 |       0.0004 |       0.0004 |       0.0003 |       0.0003 |       0.0002 |       0.0002 |       0.0001 |       0.0001 |       0.0001 |       0.0001 |       0.0001 |       0.0001 |       0.0001 |       0.0001 |       0.0000 |       0.0000 |       0.0000 |       0.0000 |       0.0000 |       0.0000 |       0.0000 |       0.0000 |       0.0000 |       0.0000 |       0.0059 |       0.0059 |       0.0000 |       0.0000 |       0.0055 |       0.0055 |       0.0000 |       0.0000 |       0.0051 |       0.0051 |       0.0000 |       0.0000 |       0.0048 |       0.0048 |       0.0000 |       0.0000 |
il1.repl_rate                               0.0005 |       0.0005 |       0.0004 |       0.0004 |       0.0003 |       0.0003 |       0.0002 |       0.0002 |       0.0001 |       0.0001 |       0.0001 |       0.0001 |       0.0001 |       0.0001 |       0.0000 |       0.0000 |       0.0000 |       0.0000 |       0.0000 |       0.0000 |       0.0000 |       0.0000 |       0.0000 |       0.0000 |       0.0000 |       0.0000 |       0.0000 |       0.0000 |       0.0059 |       0.0059 |       0.0000 |       0.0000 |       0.0055 |       0.0055 |       0.0000 |       0.0000 |       0.0051 |       0.0051 |       0.0000 |       0.0000 |       0.0048 |       0.0048 |       0.0000 |       0.0000 |
il1.wb_rate                                 0.0000 |       0.0000 |       0.0000 |       0.0000 |       0.0000 |       0.0000 |       0.0000 |       0.0000 |       0.0000 |       0.0000 |       0.0000 |       0.0000 |       0.0000 |       0.0000 |       0.0000 |       0.0000 |       0.0000 |       0.0000 |       0.0000 |       0.0000 |       0.0000 |       0.0000 |       0.0000 |       0.0000 |       0.0000 |       0.0000 |       0.0000 |       0.0000 |       0.0000 |       0.0000 |       0.0000 |       0.0000 |       0.0000 |       0.0000 |       0.0000 |       0.0000 |       0.0000 |       0.0000 |       0.0000 |       0.0000 |       0.0000 |       0.0000 |       0.0000 |       0.0000 |
il1.inv_rate                                0.0000 |       0.0000 |       0.0000 |       0.0000 |       0.0000 |       0.0000 |       0.0000 |       0.0000 |       0.0000 |       0.0000 |       0.0000 |       0.0000 |       0.0000 |       0.0000 |       0.0000 |       0.0000 |       0.0000 |       0.0000 |       0.0000 |       0.0000 |       0.0000 |       0.0000 |       0.0000 |       0.0000 |       0.0000 |       0.0000 |       0.0000 |       0.0000 |       0.0000 |       0.0000 |       0.0000 |       0.0000 |       0.0000 |       0.0000 |       0.0000 |       0.0000 |       0.0000 |       0.0000 |       0.0000 |       0.0000 |       0.0000 |       0.0000 |       0.0000 |       0.0000 |
dl1.accesses                                245445 |       245445 |       245445 |       245445 |       504543 |       504543 |       504543 |       504543 |      1117447 |      1117447 |      1117447 |      1117447 |      2302535 |      2302535 |      2302535 |      2302535 |      5047167 |      5047167 |      5047167 |      5047167 |     10380188 |     10380188 |     10380188 |     10380188 |     21936853 |     21936853 |     21936853 |     21936853 |     63046999 |     63046999 |     63046999 |     63046999 |    134356603 |    134356603 |    134356603 |    134356603 |    291600463 |    291600463 |    291600463 |    291600463 |    621103676 |    621103676 |    621103676 |    621103676 |
dl1.hits                                    217795 |       217795 |       238501 |       238501 |       454980 |       454980 |       490350 |       490350 |       999304 |       999304 |      1082889 |      1082889 |      2087945 |      2087945 |      2230779 |      2230779 |      4538342 |      4538342 |      4877534 |      4877534 |      9450442 |      9450442 |     10028881 |     10028881 |     20004920 |     20004920 |     21169287 |     21169287 |     58320214 |     58320214 |     61298439 |     61298439 |    125884823 |    125884823 |    131024073 |    131024073 |    272663326 |    272663326 |    284611787 |    284611787 |    587141534 |    587141534 |    607775570 |    607775570 |
dl1.misses                                   27650 |        27650 |         6944 |         6944 |        49563 |        49563 |        14193 |        14193 |       118143 |       118143 |        34558 |        34558 |       214590 |       214590 |        71756 |        71756 |       508825 |       508825 |       169633 |       169633 |       929746 |       929746 |       351307 |       351307 |      1931933 |      1931933 |       767566 |       767566 |      4726785 |      4726785 |      1748560 |      1748560 |      8471780 |      8471780 |      3332530 |      3332530 |     18937137 |     18937137 |      6988676 |      6988676 |     33962142 |     33962142 |     13328106 |     13328106 |
dl1.replacements                             27394 |        27394 |         6688 |         6688 |        49307 |        49307 |        13937 |        13937 |       117887 |       117887 |        34302 |        34302 |       214334 |       214334 |        71500 |        71500 |       508569 |       508569 |       169377 |       169377 |       929490 |       929490 |       351051 |       351051 |      1931677 |      1931677 |       767310 |       767310 |      4726529 |      4726529 |      1748304 |      1748304 |      8471524 |      8471524 |      3332274 |      3332274 |     18936881 |     18936881 |      6988420 |      6988420 |     33961886 |     33961886 |     13327850 |     13327850 |
dl1.writebacks                               14874 |        14874 |         5060 |         5060 |        26915 |        26915 |         9778 |         9778 |        63140 |        63140 |        23381 |        23381 |       115542 |       115542 |        46360 |        46360 |       269782 |       269782 |       109003 |       109003 |       496188 |       496188 |       217408 |       217408 |      1026639 |      1026639 |       467107 |       467107 |      2550104 |      2550104 |      1067498 |      1067498 |      4620589 |      4620589 |      1999407 |      1999407 |     10230005 |     10230005 |      4266300 |      4266300 |     18557993 |     18557993 |      7997792 |      7997792 |
dl1.invalidations                                0 |            0 |            0 |            0 |            0 |            0 |            0 |            0 |            0 |            0 |            0 |            0 |            0 |            0 |            0 |            0 |            0 |            0 |            0 |            0 |            0 |            0 |            0 |            0 |            0 |            0 |            0 |            0 |            0 |            0 |            0 |            0 |            0 |            0 |            0 |            0 |            0 |            0 |            0 |            0 |            0 |            0 |            0 |            0 |
dl1.miss_rate                               0.1127 |       0.1127 |       0.0283 |       0.0283 |       0.0982 |       0.0982 |       0.0281 |       0.0281 |       0.1057 |       0.1057 |       0.0309 |       0.0309 |       0.0932 |       0.0932 |       0.0312 |       0.0312 |       0.1008 |       0.1008 |       0.0336 |       0.0336 |       0.0896 |       0.0896 |       0.0338 |       0.0338 |       0.0881 |       0.0881 |       0.0350 |       0.0350 |       0.0750 |       0.0750 |       0.0277 |       0.0277 |       0.0631 |       0.0631 |       0.0248 |       0.0248 |       0.0649 |       0.0649 |       0.0240 |       0.0240 |       0.0547 |       0.0547 |       0.0215 |       0.0215 |
dl1.repl_rate                               0.1116 |       0.1116 |       0.0272 |       0.0272 |       0.0977 |       0.0977 |       0.0276 |       0.0276 |       0.1055 |       0.1055 |       0.0307 |       0.0307 |       0.0931 |       0.0931 |       0.0311 |       0.0311 |       0.1008 |       0.1008 |       0.0336 |       0.0336 |       0.0895 |       0.0895 |       0.0338 |       0.0338 |       0.0881 |       0.0881 |       0.0350 |       0.0350 |       0.0750 |       0.0750 |       0.0277 |       0.0277 |       0.0631 |       0.0631 |       0.0248 |       0.0248 |       0.0649 |       0.0649 |       0.0240 |       0.0240 |       0.0547 |       0.0547 |       0.0215 |       0.0215 |
dl1.wb_rate                                 0.0606 |       0.0606 |       0.0206 |       0.0206 |       0.0533 |       0.0533 |       0.0194 |       0.0194 |       0.0565 |       0.0565 |       0.0209 |       0.0209 |       0.0502 |       0.0502 |       0.0201 |       0.0201 |       0.0535 |       0.0535 |       0.0216 |       0.0216 |       0.0478 |       0.0478 |       0.0209 |       0.0209 |       0.0468 |       0.0468 |       0.0213 |       0.0213 |       0.0404 |       0.0404 |       0.0169 |       0.0169 |       0.0344 |       0.0344 |       0.0149 |       0.0149 |       0.0351 |       0.0351 |       0.0146 |       0.0146 |       0.0299 |       0.0299 |       0.0129 |       0.0129 |
dl1.inv_rate                                0.0000 |       0.0000 |       0.0000 |       0.0000 |       0.0000 |       0.0000 |       0.0000 |       0.0000 |       0.0000 |       0.0000 |       0.0000 |       0.0000 |       0.0000 |       0.0000 |       0.0000 |       0.0000 |       0.0000 |       0.0000 |       0.0000 |       0.0000 |       0.0000 |       0.0000 |       0.0000 |       0.0000 |       0.0000 |       0.0000 |       0.0000 |       0.0000 |       0.0000 |       0.0000 |       0.0000 |       0.0000 |       0.0000 |       0.0000 |       0.0000 |       0.0000 |       0.0000 |       0.0000 |       0.0000 |       0.0000 |       0.0000 |       0.0000 |       0.0000 |       0.0000 |
dl2.accesses                                 43208 |        43208 |        12583 |        12583 |        77207 |        77207 |        24571 |        24571 |       182027 |       182027 |        58511 |        58511 |       331008 |       331008 |       118719 |       118719 |       779653 |       779653 |       279217 |       279217 |      1427388 |      1427388 |       569319 |       569319 |      2960284 |      2960284 |      1235274 |      1235274 |      8588618 |      8588618 |      2816948 |      2816948 |     15714862 |     15714862 |      5332871 |      5332871 |     34411068 |     34411068 |     11255894 |     11255894 |     63006976 |     63006976 |     21326835 |     21326835 |
dl2.hits                                     41150 |        41150 |        10618 |        10618 |        74092 |        74092 |        21565 |        21565 |       176899 |       176899 |        53480 |        53480 |       321747 |       321747 |       109567 |       109567 |       762229 |       762229 |       261890 |       261890 |      1393550 |      1393550 |       535590 |       535590 |      2893678 |      2893529 |      1168781 |      1132140 |      8400769 |      8300404 |      2647693 |      2425510 |     15130191 |     15057576 |      4685665 |      4553472 |     33099829 |     33098104 |      9946487 |      9700408 |     60379945 |     60378650 |     18702860 |     18217969 |
dl2.misses                                    2058 |         2058 |         1965 |         1965 |         3115 |         3115 |         3006 |         3006 |         5128 |         5128 |         5031 |         5031 |         9261 |         9261 |         9152 |         9152 |        17424 |        17424 |        17327 |        17327 |        33838 |        33838 |        33729 |        33729 |        66606 |        66755 |        66493 |       103134 |       187849 |       288214 |       169255 |       391438 |       584671 |       657286 |       647206 |       779399 |      1311239 |      1312964 |      1309407 |      1555486 |      2627031 |      2628326 |      2623975 |      3108866 |
dl2.replacements                               253 |          253 |            0 |            0 |          285 |          285 |            0 |            0 |          257 |          257 |            0 |            0 |          285 |          285 |            0 |            0 |          257 |          257 |            0 |            0 |          286 |          286 |            0 |            0 |          294 |         1219 |            0 |        37598 |        88094 |       222678 |        38183 |       325902 |       453599 |       591750 |       516134 |       713863 |      1180167 |      1247428 |      1178335 |      1489950 |      2495959 |      2562790 |      2492903 |      3043330 |
dl2.writebacks                                  88 |           88 |            0 |            0 |           96 |           96 |            0 |            0 |           92 |           92 |            0 |            0 |           96 |           96 |            0 |            0 |           92 |           92 |            0 |            0 |           97 |           97 |            0 |            0 |          108 |          718 |            0 |        37146 |        87833 |       188567 |        37357 |       292042 |       388895 |       473677 |       460430 |       614345 |       951326 |       993205 |       985375 |      1259222 |      1986656 |      2040679 |      2035344 |      2550140 |
dl2.invalidations                                0 |            0 |            0 |            0 |            0 |            0 |            0 |            0 |            0 |            0 |            0 |            0 |            0 |            0 |            0 |            0 |            0 |            0 |            0 |            0 |            0 |            0 |            0 |            0 |            0 |            0 |            0 |            0 |            0 |            0 |            0 |            0 |            0 |            0 |            0 |            0 |            0 |            0 |            0 |            0 |            0 |            0 |            0 |            0 |
dl2.miss_rate                               0.0476 |       0.0476 |       0.1562 |       0.1562 |       0.0403 |       0.0403 |       0.1223 |       0.1223 |       0.0282 |       0.0282 |       0.0860 |       0.0860 |       0.0280 |       0.0280 |       0.0771 |       0.0771 |       0.0223 |       0.0223 |       0.0621 |       0.0621 |       0.0237 |       0.0237 |       0.0592 |       0.0592 |       0.0225 |       0.0226 |       0.0538 |       0.0835 |       0.0219 |       0.0336 |       0.0601 |       0.1390 |       0.0372 |       0.0418 |       0.1214 |       0.1461 |       0.0381 |       0.0382 |       0.1163 |       0.1382 |       0.0417 |       0.0417 |       0.1230 |       0.1458 |
dl2.repl_rate                               0.0059 |       0.0059 |       0.0000 |       0.0000 |       0.0037 |       0.0037 |       0.0000 |       0.0000 |       0.0014 |       0.0014 |       0.0000 |       0.0000 |       0.0009 |       0.0009 |       0.0000 |       0.0000 |       0.0003 |       0.0003 |       0.0000 |       0.0000 |       0.0002 |       0.0002 |       0.0000 |       0.0000 |       0.0001 |       0.0004 |       0.0000 |       0.0304 |       0.0103 |       0.0259 |       0.0136 |       0.1157 |       0.0289 |       0.0377 |       0.0968 |       0.1339 |       0.0343 |       0.0363 |       0.1047 |       0.1324 |       0.0396 |       0.0407 |       0.1169 |       0.1427 |
dl2.wb_rate                                 0.0020 |       0.0020 |       0.0000 |       0.0000 |       0.0012 |       0.0012 |       0.0000 |       0.0000 |       0.0005 |       0.0005 |       0.0000 |       0.0000 |       0.0003 |       0.0003 |       0.0000 |       0.0000 |       0.0001 |       0.0001 |       0.0000 |       0.0000 |       0.0001 |       0.0001 |       0.0000 |       0.0000 |       0.0000 |       0.0002 |       0.0000 |       0.0301 |       0.0102 |       0.0220 |       0.0133 |       0.1037 |       0.0247 |       0.0301 |       0.0863 |       0.1152 |       0.0276 |       0.0289 |       0.0875 |       0.1119 |       0.0315 |       0.0324 |       0.0954 |       0.1196 |
dl2.inv_rate                                0.0000 |       0.0000 |       0.0000 |       0.0000 |       0.0000 |       0.0000 |       0.0000 |       0.0000 |       0.0000 |       0.0000 |       0.0000 |       0.0000 |       0.0000 |       0.0000 |       0.0000 |       0.0000 |       0.0000 |       0.0000 |       0.0000 |       0.0000 |       0.0000 |       0.0000 |       0.0000 |       0.0000 |       0.0000 |       0.0000 |       0.0000 |       0.0000 |       0.0000 |       0.0000 |       0.0000 |       0.0000 |       0.0000 |       0.0000 |       0.0000 |       0.0000 |       0.0000 |       0.0000 |       0.0000 |       0.0000 |       0.0000 |       0.0000 |       0.0000 |       0.0000 |
itlb.accesses                               860013 |       860013 |       860013 |       860013 |      1749197 |      1749197 |      1749197 |      1749197 |      3960793 |      3960793 |      3960793 |      3960793 |      8064655 |      8064655 |      8064655 |      8064655 |     17983795 |     17983795 |     17983795 |     17983795 |     36575577 |     36575577 |     36575577 |     36575577 |     77475184 |     77475184 |     77475184 |     77475184 |    223416661 |    223416661 |    223416661 |    223416661 |    473222019 |    473222019 |    473222019 |    473222019 |   1035823577 |   1035823577 |   1035823577 |   1035823577 |   2186733895 |   2186733895 |   2186733895 |   2186733895 |
itlb.hits                                   859999 |       859999 |       859999 |       859999 |      1749183 |      1749183 |      1749183 |      1749183 |      3960779 |      3960779 |      3960779 |      3960779 |      8064641 |      8064641 |      8064641 |      8064641 |     17983781 |     17983781 |     17983781 |     17983781 |     36575563 |     36575563 |     36575563 |     36575563 |     77475170 |     77475170 |     77475170 |     77475170 |    223416647 |    223416647 |    223416647 |    223416647 |    473222005 |    473222005 |    473222005 |    473222005 |   1035823563 |   1035823563 |   1035823563 |   1035823563 |   2186733881 |   2186733881 |   2186733881 |   2186733881 |
itlb.misses                                     14 |           14 |           14 |           14 |           14 |           14 |           14 |           14 |           14 |           14 |           14 |           14 |           14 |           14 |           14 |           14 |           14 |           14 |           14 |           14 |           14 |           14 |           14 |           14 |           14 |           14 |           14 |           14 |           14 |           14 |           14 |           14 |           14 |           14 |           14 |           14 |           14 |           14 |           14 |           14 |           14 |           14 |           14 |           14 |
itlb.replacements                                0 |            0 |            0 |            0 |            0 |            0 |            0 |            0 |            0 |            0 |            0 |            0 |            0 |            0 |            0 |            0 |            0 |            0 |            0 |            0 |            0 |            0 |            0 |            0 |            0 |            0 |            0 |            0 |            0 |            0 |            0 |            0 |            0 |            0 |            0 |            0 |            0 |            0 |            0 |            0 |            0 |            0 |            0 |            0 |
itlb.writebacks                                  0 |            0 |            0 |            0 |            0 |            0 |            0 |            0 |            0 |            0 |            0 |            0 |            0 |            0 |            0 |            0 |            0 |            0 |            0 |            0 |            0 |            0 |            0 |            0 |            0 |            0 |            0 |            0 |            0 |            0 |            0 |            0 |            0 |            0 |            0 |            0 |            0 |            0 |            0 |            0 |            0 |            0 |            0 |            0 |
itlb.invalidations                               0 |            0 |            0 |            0 |            0 |            0 |            0 |            0 |            0 |            0 |            0 |            0 |            0 |            0 |            0 |            0 |            0 |            0 |            0 |            0 |            0 |            0 |            0 |            0 |            0 |            0 |            0 |            0 |            0 |            0 |            0 |            0 |            0 |            0 |            0 |            0 |            0 |            0 |            0 |            0 |            0 |            0 |            0 |            0 |
itlb.miss_rate                              0.0000 |       0.0000 |       0.0000 |       0.0000 |       0.0000 |       0.0000 |       0.0000 |       0.0000 |       0.0000 |       0.0000 |       0.0000 |       0.0000 |       0.0000 |       0.0000 |       0.0000 |       0.0000 |       0.0000 |       0.0000 |       0.0000 |       0.0000 |       0.0000 |       0.0000 |       0.0000 |       0.0000 |       0.0000 |       0.0000 |       0.0000 |       0.0000 |       0.0000 |       0.0000 |       0.0000 |       0.0000 |       0.0000 |       0.0000 |       0.0000 |       0.0000 |       0.0000 |       0.0000 |       0.0000 |       0.0000 |       0.0000 |       0.0000 |       0.0000 |       0.0000 |
itlb.repl_rate                              0.0000 |       0.0000 |       0.0000 |       0.0000 |       0.0000 |       0.0000 |       0.0000 |       0.0000 |       0.0000 |       0.0000 |       0.0000 |       0.0000 |       0.0000 |       0.0000 |       0.0000 |       0.0000 |       0.0000 |       0.0000 |       0.0000 |       0.0000 |       0.0000 |       0.0000 |       0.0000 |       0.0000 |       0.0000 |       0.0000 |       0.0000 |       0.0000 |       0.0000 |       0.0000 |       0.0000 |       0.0000 |       0.0000 |       0.0000 |       0.0000 |       0.0000 |       0.0000 |       0.0000 |       0.0000 |       0.0000 |       0.0000 |       0.0000 |       0.0000 |       0.0000 |
itlb.wb_rate                                0.0000 |       0.0000 |       0.0000 |       0.0000 |       0.0000 |       0.0000 |       0.0000 |       0.0000 |       0.0000 |       0.0000 |       0.0000 |       0.0000 |       0.0000 |       0.0000 |       0.0000 |       0.0000 |       0.0000 |       0.0000 |       0.0000 |       0.0000 |       0.0000 |       0.0000 |       0.0000 |       0.0000 |       0.0000 |       0.0000 |       0.0000 |       0.0000 |       0.0000 |       0.0000 |       0.0000 |       0.0000 |       0.0000 |       0.0000 |       0.0000 |       0.0000 |       0.0000 |       0.0000 |       0.0000 |       0.0000 |       0.0000 |       0.0000 |       0.0000 |       0.0000 |
itlb.inv_rate                               0.0000 |       0.0000 |       0.0000 |       0.0000 |       0.0000 |       0.0000 |       0.0000 |       0.0000 |       0.0000 |       0.0000 |       0.0000 |       0.0000 |       0.0000 |       0.0000 |       0.0000 |       0.0000 |       0.0000 |       0.0000 |       0.0000 |       0.0000 |       0.0000 |       0.0000 |       0.0000 |       0.0000 |       0.0000 |       0.0000 |       0.0000 |       0.0000 |       0.0000 |       0.0000 |       0.0000 |       0.0000 |       0.0000 |       0.0000 |       0.0000 |       0.0000 |       0.0000 |       0.0000 |       0.0000 |       0.0000 |       0.0000 |       0.0000 |       0.0000 |       0.0000 |
dtlb.accesses                               245445 |       245445 |       245445 |       245445 |       504543 |       504543 |       504543 |       504543 |      1117447 |      1117447 |      1117447 |      1117447 |      2302535 |      2302535 |      2302535 |      2302535 |      5047167 |      5047167 |      5047167 |      5047167 |     10380188 |     10380188 |     10380188 |     10380188 |     21936853 |     21936853 |     21936853 |     21936853 |     63046999 |     63046999 |     63046999 |     63046999 |    134356603 |    134356603 |    134356603 |    134356603 |    291600463 |    291600463 |    291600463 |    291600463 |    621103676 |    621103676 |    621103676 |    621103676 |
dtlb.hits                                   245429 |       245429 |       245429 |       245429 |       504519 |       504519 |       504519 |       504519 |      1117407 |      1117407 |      1117407 |      1117407 |      2302463 |      2302463 |      2302463 |      2302463 |      5046982 |      5046982 |      5046982 |      5046982 |     10377762 |     10377762 |     10377762 |     10377762 |     21931439 |     21931439 |     21931439 |     21931439 |     63035268 |     63035268 |     63035268 |     63035268 |    134332940 |    134332940 |    134332940 |    134332940 |    291535465 |    291535465 |    291535465 |    291535465 |    620632625 |    620632625 |    620632625 |    620632625 |
dtlb.misses                                     16 |           16 |           16 |           16 |           24 |           24 |           24 |           24 |           40 |           40 |           40 |           40 |           72 |           72 |           72 |           72 |          185 |          185 |          185 |          185 |         2426 |         2426 |         2426 |         2426 |         5414 |         5414 |         5414 |         5414 |        11731 |        11731 |        11731 |        11731 |        23663 |        23663 |        23663 |        23663 |        64998 |        64998 |        64998 |        64998 |       471051 |       471051 |       471051 |       471051 |
dtlb.replacements                                0 |            0 |            0 |            0 |            0 |            0 |            0 |            0 |            0 |            0 |            0 |            0 |            0 |            0 |            0 |            0 |           57 |           57 |           57 |           57 |         2298 |         2298 |         2298 |         2298 |         5286 |         5286 |         5286 |         5286 |        11603 |        11603 |        11603 |        11603 |        23535 |        23535 |        23535 |        23535 |        64870 |        64870 |        64870 |        64870 |       470923 |       470923 |       470923 |       470923 |
dtlb.writebacks                                  0 |            0 |            0 |            0 |            0 |            0 |            0 |            0 |            0 |            0 |            0 |            0 |            0 |            0 |            0 |            0 |           37 |           37 |           37 |           37 |         1333 |         1333 |         1333 |         1333 |         3029 |         3029 |         3029 |         3029 |         6583 |         6583 |         6583 |         6583 |        13210 |        13210 |        13210 |        13210 |        26466 |        26466 |        26466 |        26466 |        52961 |        52961 |        52961 |        52961 |
dtlb.invalidations                               0 |            0 |            0 |            0 |            0 |            0 |            0 |            0 |            0 |            0 |            0 |            0 |            0 |            0 |            0 |            0 |            0 |            0 |            0 |            0 |            0 |            0 |            0 |            0 |            0 |            0 |            0 |            0 |            0 |            0 |            0 |            0 |            0 |            0 |            0 |            0 |            0 |            0 |            0 |            0 |            0 |            0 |            0 |            0 |
dtlb.miss_rate                              0.0001 |       0.0001 |       0.0001 |       0.0001 |       0.0000 |       0.0000 |       0.0000 |       0.0000 |       0.0000 |       0.0000 |       0.0000 |       0.0000 |       0.0000 |       0.0000 |       0.0000 |       0.0000 |       0.0000 |       0.0000 |       0.0000 |       0.0000 |       0.0002 |       0.0002 |       0.0002 |       0.0002 |       0.0002 |       0.0002 |       0.0002 |       0.0002 |       0.0002 |       0.0002 |       0.0002 |       0.0002 |       0.0002 |       0.0002 |       0.0002 |       0.0002 |       0.0002 |       0.0002 |       0.0002 |       0.0002 |       0.0008 |       0.0008 |       0.0008 |       0.0008 |
dtlb.repl_rate                              0.0000 |       0.0000 |       0.0000 |       0.0000 |       0.0000 |       0.0000 |       0.0000 |       0.0000 |       0.0000 |       0.0000 |       0.0000 |       0.0000 |       0.0000 |       0.0000 |       0.0000 |       0.0000 |       0.0000 |       0.0000 |       0.0000 |       0.0000 |       0.0002 |       0.0002 |       0.0002 |       0.0002 |       0.0002 |       0.0002 |       0.0002 |       0.0002 |       0.0002 |       0.0002 |       0.0002 |       0.0002 |       0.0002 |       0.0002 |       0.0002 |       0.0002 |       0.0002 |       0.0002 |       0.0002 |       0.0002 |       0.0008 |       0.0008 |       0.0008 |       0.0008 |
dtlb.wb_rate                                0.0000 |       0.0000 |       0.0000 |       0.0000 |       0.0000 |       0.0000 |       0.0000 |       0.0000 |       0.0000 |       0.0000 |       0.0000 |       0.0000 |       0.0000 |       0.0000 |       0.0000 |       0.0000 |       0.0000 |       0.0000 |       0.0000 |       0.0000 |       0.0001 |       0.0001 |       0.0001 |       0.0001 |       0.0001 |       0.0001 |       0.0001 |       0.0001 |       0.0001 |       0.0001 |       0.0001 |       0.0001 |       0.0001 |       0.0001 |       0.0001 |       0.0001 |       0.0001 |       0.0001 |       0.0001 |       0.0001 |       0.0001 |       0.0001 |       0.0001 |       0.0001 |
dtlb.inv_rate                               0.0000 |       0.0000 |       0.0000 |       0.0000 |       0.0000 |       0.0000 |       0.0000 |       0.0000 |       0.0000 |       0.0000 |       0.0000 |       0.0000 |       0.0000 |       0.0000 |       0.0000 |       0.0000 |       0.0000 |       0.0000 |       0.0000 |       0.0000 |       0.0000 |       0.0000 |       0.0000 |       0.0000 |       0.0000 |       0.0000 |       0.0000 |       0.0000 |       0.0000 |       0.0000 |       0.0000 |       0.0000 |       0.0000 |       0.0000 |       0.0000 |       0.0000 |       0.0000 |       0.0000 |       0.0000 |       0.0000 |       0.0000 |       0.0000 |       0.0000 |       0.0000 |
ld_text_base                            0x00400000 |   0x00400000 |   0x00400000 |   0x00400000 |   0x00400000 |   0x00400000 |   0x00400000 |   0x00400000 |   0x00400000 |   0x00400000 |   0x00400000 |   0x00400000 |   0x00400000 |   0x00400000 |   0x00400000 |   0x00400000 |   0x00400000 |   0x00400000 |   0x00400000 |   0x00400000 |   0x00400000 |   0x00400000 |   0x00400000 |   0x00400000 |   0x00400000 |   0x00400000 |   0x00400000 |   0x00400000 |   0x00400000 |   0x00400000 |   0x00400000 |   0x00400000 |   0x00400000 |   0x00400000 |   0x00400000 |   0x00400000 |   0x00400000 |   0x00400000 |   0x00400000 |   0x00400000 |   0x00400000 |   0x00400000 |   0x00400000 |   0x00400000 |
ld_text_size                                 94704 |        94704 |        94704 |        94704 |        94736 |        94736 |        94736 |        94736 |        94752 |        94752 |        94752 |        94752 |        94768 |        94768 |        94768 |        94768 |        94768 |        94768 |        94768 |        94768 |        94768 |        94768 |        94768 |        94768 |        94768 |        94768 |        94768 |        94768 |        94768 |        94768 |        94768 |        94768 |        94768 |        94768 |        94768 |        94768 |        94768 |        94768 |        94768 |        94768 |        94768 |        94768 |        94768 |        94768 |
ld_data_base                            0x10000000 |   0x10000000 |   0x10000000 |   0x10000000 |   0x10000000 |   0x10000000 |   0x10000000 |   0x10000000 |   0x10000000 |   0x10000000 |   0x10000000 |   0x10000000 |   0x10000000 |   0x10000000 |   0x10000000 |   0x10000000 |   0x10000000 |   0x10000000 |   0x10000000 |   0x10000000 |   0x10000000 |   0x10000000 |   0x10000000 |   0x10000000 |   0x10000000 |   0x10000000 |   0x10000000 |   0x10000000 |   0x10000000 |   0x10000000 |   0x10000000 |   0x10000000 |   0x10000000 |   0x10000000 |   0x10000000 |   0x10000000 |   0x10000000 |   0x10000000 |   0x10000000 |   0x10000000 |   0x10000000 |   0x10000000 |   0x10000000 |   0x10000000 |
ld_data_size                                  8192 |         8192 |         8192 |         8192 |         8192 |         8192 |         8192 |         8192 |         8192 |         8192 |         8192 |         8192 |         8192 |         8192 |         8192 |         8192 |         8192 |         8192 |         8192 |         8192 |         8192 |         8192 |         8192 |         8192 |         8192 |         8192 |         8192 |         8192 |         8192 |         8192 |         8192 |         8192 |         8192 |         8192 |         8192 |         8192 |         8192 |         8192 |         8192 |         8192 |         8192 |         8192 |         8192 |         8192 |
ld_stack_base                           0x7fffc000 |   0x7fffc000 |   0x7fffc000 |   0x7fffc000 |   0x7fffc000 |   0x7fffc000 |   0x7fffc000 |   0x7fffc000 |   0x7fffc000 |   0x7fffc000 |   0x7fffc000 |   0x7fffc000 |   0x7fffc000 |   0x7fffc000 |   0x7fffc000 |   0x7fffc000 |   0x7fffc000 |   0x7fffc000 |   0x7fffc000 |   0x7fffc000 |   0x7fffc000 |   0x7fffc000 |   0x7fffc000 |   0x7fffc000 |   0x7fffc000 |   0x7fffc000 |   0x7fffc000 |   0x7fffc000 |   0x7fffc000 |   0x7fffc000 |   0x7fffc000 |   0x7fffc000 |   0x7fffc000 |   0x7fffc000 |   0x7fffc000 |   0x7fffc000 |   0x7fffc000 |   0x7fffc000 |   0x7fffc000 |   0x7fffc000 |   0x7fffc000 |   0x7fffc000 |   0x7fffc000 |   0x7fffc000 |
ld_stack_size                                16384 |        16384 |        16384 |        16384 |        16384 |        16384 |        16384 |        16384 |        16384 |        16384 |        16384 |        16384 |        16384 |        16384 |        16384 |        16384 |        16384 |        16384 |        16384 |        16384 |        16384 |        16384 |        16384 |        16384 |        16384 |        16384 |        16384 |        16384 |        16384 |        16384 |        16384 |        16384 |        16384 |        16384 |        16384 |        16384 |        16384 |        16384 |        16384 |        16384 |        16384 |        16384 |        16384 |        16384 |
ld_prog_entry                           0x00400140 |   0x00400140 |   0x00400140 |   0x00400140 |   0x00400140 |   0x00400140 |   0x00400140 |   0x00400140 |   0x00400140 |   0x00400140 |   0x00400140 |   0x00400140 |   0x00400140 |   0x00400140 |   0x00400140 |   0x00400140 |   0x00400140 |   0x00400140 |   0x00400140 |   0x00400140 |   0x00400140 |   0x00400140 |   0x00400140 |   0x00400140 |   0x00400140 |   0x00400140 |   0x00400140 |   0x00400140 |   0x00400140 |   0x00400140 |   0x00400140 |   0x00400140 |   0x00400140 |   0x00400140 |   0x00400140 |   0x00400140 |   0x00400140 |   0x00400140 |   0x00400140 |   0x00400140 |   0x00400140 |   0x00400140 |   0x00400140 |   0x00400140 |
ld_environ_base                         0x7fff8000 |   0x7fff8000 |   0x7fff8000 |   0x7fff8000 |   0x7fff8000 |   0x7fff8000 |   0x7fff8000 |   0x7fff8000 |   0x7fff8000 |   0x7fff8000 |   0x7fff8000 |   0x7fff8000 |   0x7fff8000 |   0x7fff8000 |   0x7fff8000 |   0x7fff8000 |   0x7fff8000 |   0x7fff8000 |   0x7fff8000 |   0x7fff8000 |   0x7fff8000 |   0x7fff8000 |   0x7fff8000 |   0x7fff8000 |   0x7fff8000 |   0x7fff8000 |   0x7fff8000 |   0x7fff8000 |   0x7fff8000 |   0x7fff8000 |   0x7fff8000 |   0x7fff8000 |   0x7fff8000 |   0x7fff8000 |   0x7fff8000 |   0x7fff8000 |   0x7fff8000 |   0x7fff8000 |   0x7fff8000 |   0x7fff8000 |   0x7fff8000 |   0x7fff8000 |   0x7fff8000 |   0x7fff8000 |
ld_target_big_endian                             0 |            0 |            0 |            0 |            0 |            0 |            0 |            0 |            0 |            0 |            0 |            0 |            0 |            0 |            0 |            0 |            0 |            0 |            0 |            0 |            0 |            0 |            0 |            0 |            0 |            0 |            0 |            0 |            0 |            0 |            0 |            0 |            0 |            0 |            0 |            0 |            0 |            0 |            0 |            0 |            0 |            0 |            0 |            0 |
mem.page_count                                  40 |           40 |           40 |           40 |           48 |           48 |           48 |           48 |           64 |           64 |           64 |           64 |           96 |           96 |           96 |           96 |          160 |          160 |          160 |          160 |          288 |          288 |          288 |          288 |          544 |          544 |          544 |          544 |         1062 |         1062 |         1062 |         1062 |         2086 |         2086 |         2086 |         2086 |         4140 |         4140 |         4140 |         4140 |         8248 |         8248 |         8248 |         8248 |
mem.page_mem                                  160k |         160k |         160k |         160k |         192k |         192k |         192k |         192k |         256k |         256k |         256k |         256k |         384k |         384k |         384k |         384k |         640k |         640k |         640k |         640k |        1152k |        1152k |        1152k |        1152k |        2176k |        2176k |        2176k |        2176k |        4248k |        4248k |        4248k |        4248k |        8344k |        8344k |        8344k |        8344k |       16560k |       16560k |       16560k |       16560k |       32992k |       32992k |       32992k |       32992k |
mem.ptab_misses                                 40 |           40 |           40 |           40 |           48 |           48 |           48 |           48 |           64 |           64 |           64 |           64 |           96 |           96 |           96 |           96 |          160 |          160 |          160 |          160 |          288 |          288 |          288 |          288 |          544 |          544 |          544 |          544 |         1067 |         1067 |         1067 |         1067 |        78885 |        78885 |        78885 |        78885 |        88909 |        88909 |        88909 |        88909 |        85049 |        85049 |        85049 |        85049 |
mem.ptab_accesses                          4513778 |      4513778 |      4513778 |      4513778 |      8588902 |      8588902 |      8588902 |      8588902 |     18661190 |     18661190 |     18661190 |     18661190 |     37446910 |     37446910 |     37446910 |     37446910 |     82612734 |     82612734 |     82612734 |     82612734 |    167645904 |    167645904 |    167645904 |    167645904 |    354357662 |    354357662 |    354357662 |    354357662 |   1020343862 |   1020343862 |   1020343862 |   1020343862 |   2162184502 |   2162184502 |   2162184502 |   2162184502 |   4727078454 |   4727078454 |   4727078454 |   4727078454 |   9989726152 |   9989726152 |   9989726152 |   9989726152 |
mem.ptab_miss_rate                          0.0000 |       0.0000 |       0.0000 |       0.0000 |       0.0000 |       0.0000 |       0.0000 |       0.0000 |       0.0000 |       0.0000 |       0.0000 |       0.0000 |       0.0000 |       0.0000 |       0.0000 |       0.0000 |       0.0000 |       0.0000 |       0.0000 |       0.0000 |       0.0000 |       0.0000 |       0.0000 |       0.0000 |       0.0000 |       0.0000 |       0.0000 |       0.0000 |       0.0000 |       0.0000 |       0.0000 |       0.0000 |       0.0000 |       0.0000 |       0.0000 |       0.0000 |       0.0000 |       0.0000 |       0.0000 |       0.0000 |       0.0000 |       0.0000 |       0.0000 |       0.0000 |
-------------------------------------------------------------------------------------------------
sim-bpred                                     4096 |         4096 |         4096 |         4096 |         4096 |         4096 |         4096 |         8192 |         8192 |         8192 |         8192 |         8192 |         8192 |         8192 |        16384 |        16384 |        16384 |        16384 |        16384 |        16384 |        16384 |        32768 |        32768 |        32768 |        32768 |        32768 |        32768 |        32768 |        65536 |        65536 |        65536 |        65536 |        65536 |        65536 |        65536 |       131072 |       131072 |       131072 |       131072 |       131072 |       131072 |       131072 |       262144 |       262144 |       262144 |       262144 |       262144 |       262144 |       262144 |       524288 |       524288 |       524288 |       524288 |       524288 |       524288 |       524288 |      1048576 |      1048576 |      1048576 |      1048576 |      1048576 |      1048576 |      1048576 |      2097152 |      2097152 |      2097152 |      2097152 |      2097152 |      2097152 |      2097152 |      4194304 |      4194304 |      4194304 |      4194304 |      4194304 |      4194304 |      4194304 |
-bpred bimod -bpred:bimod 512
-bpred bimod -bpred:bimod 1024
-bpred bimod -bpred:bimod 2048
-bpred 2lev -bpred:2lev 1 512 10 1
-bpred 2lev -bpred:2lev 1 1024 10 1
-bpred 2lev -bpred:2lev 1 2048 10 1
-bpred 2lev -bpred:2lev 1 4096 10 1
-------------------------------------------------------------------------------------------------
sim_num_insn                                860013 |       860013 |       860013 |       860013 |       860013 |       860013 |       860013 |      1749197 |      1749197 |      1749197 |      1749197 |      1749197 |      1749197 |      1749197 |      3960793 |      3960793 |      3960793 |      3960793 |      3960793 |      3960793 |      3960793 |      8064655 |      8064655 |      8064655 |      8064655 |      8064655 |      8064655 |      8064655 |     17983795 |     17983795 |     17983795 |     17983795 |     17983795 |     17983795 |     17983795 |     36575577 |     36575577 |     36575577 |     36575577 |     36575577 |     36575577 |     36575577 |     77475184 |     77475184 |     77475184 |     77475184 |     77475184 |     77475184 |     77475184 |    223416661 |    223416661 |    223416661 |    223416661 |    223416661 |    223416661 |    223416661 |    473222019 |    473222019 |    473222019 |    473222019 |    473222019 |    473222019 |    473222019 |   1035823577 |   1035823577 |   1035823577 |   1035823577 |   1035823577 |   1035823577 |   1035823577 |   2186733895 |   2186733895 |   2186733895 |   2186733895 |   2186733895 |   2186733895 |   2186733895 |
sim_num_refs                                228979 |       228979 |       228979 |       228979 |       228979 |       228979 |       228979 |       471693 |       471693 |       471693 |       471693 |       471693 |       471693 |       471693 |      1051829 |      1051829 |      1051829 |      1051829 |      1051829 |      1051829 |      1051829 |      2171381 |      2171381 |      2171381 |      2171381 |      2171381 |      2171381 |      2171381 |      4784941 |      4784941 |      4784941 |      4784941 |      4784941 |      4784941 |      4784941 |      9855818 |      9855818 |      9855818 |      9855818 |      9855818 |      9855818 |      9855818 |     20888195 |     20888195 |     20888195 |     20888195 |     20888195 |     20888195 |     20888195 |     60949765 |     60949765 |     60949765 |     60949765 |     60949765 |     60949765 |     60949765 |    130162217 |    130162217 |    130162217 |    130162217 |    130162217 |    130162217 |    130162217 |    283211773 |    283211773 |    283211773 |    283211773 |    283211773 |    283211773 |    283211773 |    604326378 |    604326378 |    604326378 |    604326378 |    604326378 |    604326378 |    604326378 |
sim_elapsed_time                                 1 |            1 |            1 |            1 |            1 |            1 |            1 |            1 |            1 |            1 |            1 |            1 |            1 |            1 |            1 |            1 |            1 |            1 |            1 |            1 |            1 |            1 |            1 |            1 |            1 |            1 |            1 |            1 |            2 |            2 |            2 |            2 |            2 |            2 |            2 |            4 |            4 |            4 |            4 |            5 |            4 |            4 |            9 |            9 |            8 |            9 |            9 |            8 |            8 |           25 |           26 |           25 |           26 |           26 |           25 |           26 |           54 |           54 |           54 |           55 |           55 |           55 |           55 |          118 |          118 |          119 |          120 |          120 |          120 |          120 |          251 |          251 |          251 |          256 |          256 |          255 |          255 |
sim_inst_rate                          860013.0000 |  860013.0000 |  860013.0000 |  860013.0000 |  860013.0000 |  860013.0000 |  860013.0000 | 1749197.0000 | 1749197.0000 | 1749197.0000 | 1749197.0000 | 1749197.0000 | 1749197.0000 | 1749197.0000 | 3960793.0000 | 3960793.0000 | 3960793.0000 | 3960793.0000 | 3960793.0000 | 3960793.0000 | 3960793.0000 | 8064655.0000 | 8064655.0000 | 8064655.0000 | 8064655.0000 | 8064655.0000 | 8064655.0000 | 8064655.0000 | 8991897.5000 | 8991897.5000 | 8991897.5000 | 8991897.5000 | 8991897.5000 | 8991897.5000 | 8991897.5000 | 9143894.2500 | 9143894.2500 | 9143894.2500 | 9143894.2500 | 7315115.4000 | 9143894.2500 | 9143894.2500 | 8608353.7778 | 8608353.7778 | 9684398.0000 | 8608353.7778 | 8608353.7778 | 9684398.0000 | 9684398.0000 | 8936666.4400 | 8592948.5000 | 8936666.4400 | 8592948.5000 | 8592948.5000 | 8936666.4400 | 8592948.5000 | 8763370.7222 | 8763370.7222 | 8763370.7222 | 8604036.7091 | 8604036.7091 | 8604036.7091 | 8604036.7091 | 8778165.9068 | 8778165.9068 | 8704399.8067 | 8631863.1417 | 8631863.1417 | 8631863.1417 | 8631863.1417 | 8712087.2311 | 8712087.2311 | 8712087.2311 | 8541929.2773 | 8541929.2773 | 8575427.0392 | 8575427.0392 |
sim_num_branches                            112955 |       112955 |       112955 |       112955 |       112955 |       112955 |       112955 |       235640 |       235640 |       235640 |       235640 |       235640 |       235640 |       235640 |       515035 |       515035 |       515035 |       515035 |       515035 |       515035 |       515035 |      1072104 |      1072104 |      1072104 |      1072104 |      1072104 |      1072104 |      1072104 |      2319676 |      2319676 |      2319676 |      2319676 |      2319676 |      2319676 |      2319676 |      4812839 |      4812839 |      4812839 |      4812839 |      4812839 |      4812839 |      4812839 |     10151022 |     10151022 |     10151022 |     10151022 |     10151022 |     10151022 |     10151022 |     30682206 |     30682206 |     30682206 |     30682206 |     30682206 |     30682206 |     30682206 |     67185205 |     67185205 |     67185205 |     67185205 |     67185205 |     67185205 |     67185205 |    145983699 |    145983699 |    145983699 |    145983699 |    145983699 |    145983699 |    145983699 |    314563299 |    314563299 |    314563299 |    314563299 |    314563299 |    314563299 |    314563299 |
sim_IPB                                     7.6138 |       7.6138 |       7.6138 |       7.6138 |       7.6138 |       7.6138 |       7.6138 |       7.4232 |       7.4232 |       7.4232 |       7.4232 |       7.4232 |       7.4232 |       7.4232 |       7.6903 |       7.6903 |       7.6903 |       7.6903 |       7.6903 |       7.6903 |       7.6903 |       7.5223 |       7.5223 |       7.5223 |       7.5223 |       7.5223 |       7.5223 |       7.5223 |       7.7527 |       7.7527 |       7.7527 |       7.7527 |       7.7527 |       7.7527 |       7.7527 |       7.5996 |       7.5996 |       7.5996 |       7.5996 |       7.5996 |       7.5996 |       7.5996 |       7.6323 |       7.6323 |       7.6323 |       7.6323 |       7.6323 |       7.6323 |       7.6323 |       7.2816 |       7.2816 |       7.2816 |       7.2816 |       7.2816 |       7.2816 |       7.2816 |       7.0435 |       7.0435 |       7.0435 |       7.0435 |       7.0435 |       7.0435 |       7.0435 |       7.0955 |       7.0955 |       7.0955 |       7.0955 |       7.0955 |       7.0955 |       7.0955 |       6.9516 |       6.9516 |       6.9516 |       6.9516 |       6.9516 |       6.9516 |       6.9516 |
bpred_bimod.lookups                         112955 |       112955 |       112955 |xxxxxxxxxxxxx |xxxxxxxxxxxxx |xxxxxxxxxxxxx |xxxxxxxxxxxxx |       235640 |       235640 |       235640 |xxxxxxxxxxxxx |xxxxxxxxxxxxx |xxxxxxxxxxxxx |xxxxxxxxxxxxx |       515035 |       515035 |       515035 |xxxxxxxxxxxxx |xxxxxxxxxxxxx |xxxxxxxxxxxxx |xxxxxxxxxxxxx |      1072104 |      1072104 |      1072104 |xxxxxxxxxxxxx |xxxxxxxxxxxxx |xxxxxxxxxxxxx |xxxxxxxxxxxxx |      2319676 |      2319676 |      2319676 |xxxxxxxxxxxxx |xxxxxxxxxxxxx |xxxxxxxxxxxxx |xxxxxxxxxxxxx |      4812839 |      4812839 |      4812839 |xxxxxxxxxxxxx |xxxxxxxxxxxxx |xxxxxxxxxxxxx |xxxxxxxxxxxxx |     10151022 |     10151022 |     10151022 |xxxxxxxxxxxxx |xxxxxxxxxxxxx |xxxxxxxxxxxxx |xxxxxxxxxxxxx |     30682206 |     30682206 |     30682206 |xxxxxxxxxxxxx |xxxxxxxxxxxxx |xxxxxxxxxxxxx |xxxxxxxxxxxxx |     67185205 |     67185205 |     67185205 |xxxxxxxxxxxxx |xxxxxxxxxxxxx |xxxxxxxxxxxxx |xxxxxxxxxxxxx |    145983699 |    145983699 |    145983699 |xxxxxxxxxxxxx |xxxxxxxxxxxxx |xxxxxxxxxxxxx |xxxxxxxxxxxxx |    314563299 |    314563299 |    314563299 |
bpred_bimod.updates                         112955 |       112955 |       112955 |xxxxxxxxxxxxx |xxxxxxxxxxxxx |xxxxxxxxxxxxx |xxxxxxxxxxxxx |       235640 |       235640 |       235640 |xxxxxxxxxxxxx |xxxxxxxxxxxxx |xxxxxxxxxxxxx |xxxxxxxxxxxxx |       515035 |       515035 |       515035 |xxxxxxxxxxxxx |xxxxxxxxxxxxx |xxxxxxxxxxxxx |xxxxxxxxxxxxx |      1072104 |      1072104 |      1072104 |xxxxxxxxxxxxx |xxxxxxxxxxxxx |xxxxxxxxxxxxx |xxxxxxxxxxxxx |      2319676 |      2319676 |      2319676 |xxxxxxxxxxxxx |xxxxxxxxxxxxx |xxxxxxxxxxxxx |xxxxxxxxxxxxx |      4812839 |      4812839 |      4812839 |xxxxxxxxxxxxx |xxxxxxxxxxxxx |xxxxxxxxxxxxx |xxxxxxxxxxxxx |     10151022 |     10151022 |     10151022 |xxxxxxxxxxxxx |xxxxxxxxxxxxx |xxxxxxxxxxxxx |xxxxxxxxxxxxx |     30682206 |     30682206 |     30682206 |xxxxxxxxxxxxx |xxxxxxxxxxxxx |xxxxxxxxxxxxx |xxxxxxxxxxxxx |     67185205 |     67185205 |     67185205 |xxxxxxxxxxxxx |xxxxxxxxxxxxx |xxxxxxxxxxxxx |xxxxxxxxxxxxx |    145983699 |    145983699 |    145983699 |xxxxxxxxxxxxx |xxxxxxxxxxxxx |xxxxxxxxxxxxx |xxxxxxxxxxxxx |    314563299 |    314563299 |    314563299 |
bpred_bimod.addr_hits                        87247 |        87255 |        87260 |xxxxxxxxxxxxx |xxxxxxxxxxxxx |xxxxxxxxxxxxx |xxxxxxxxxxxxx |       183916 |       183925 |       183927 |xxxxxxxxxxxxx |xxxxxxxxxxxxx |xxxxxxxxxxxxx |xxxxxxxxxxxxx |       396589 |       396599 |       396602 |xxxxxxxxxxxxx |xxxxxxxxxxxxx |xxxxxxxxxxxxx |xxxxxxxxxxxxx |       832737 |       832754 |       832757 |xxxxxxxxxxxxx |xxxxxxxxxxxxx |xxxxxxxxxxxxx |xxxxxxxxxxxxx |      1781424 |      1781485 |      1781489 |xxxxxxxxxxxxx |xxxxxxxxxxxxx |xxxxxxxxxxxxx |xxxxxxxxxxxxx |      3726868 |      3726921 |      3726924 |xxxxxxxxxxxxx |xxxxxxxxxxxxx |xxxxxxxxxxxxx |xxxxxxxxxxxxx |      7849365 |      7849447 |      7849507 |xxxxxxxxxxxxx |xxxxxxxxxxxxx |xxxxxxxxxxxxx |xxxxxxxxxxxxx |     24453144 |     24453691 |     24453694 |xxxxxxxxxxxxx |xxxxxxxxxxxxx |xxxxxxxxxxxxx |xxxxxxxxxxxxx |     54433136 |     54433483 |     54433480 |xxxxxxxxxxxxx |xxxxxxxxxxxxx |xxxxxxxxxxxxx |xxxxxxxxxxxxx |    116898579 |    116900710 |    116900701 |xxxxxxxxxxxxx |xxxxxxxxxxxxx |xxxxxxxxxxxxx |xxxxxxxxxxxxx |    252100247 |    252101602 |    252101608 |
bpred_bimod.dir_hits                         87395 |        87402 |        87406 |xxxxxxxxxxxxx |xxxxxxxxxxxxx |xxxxxxxxxxxxx |xxxxxxxxxxxxx |       184069 |       184075 |       184077 |xxxxxxxxxxxxx |xxxxxxxxxxxxx |xxxxxxxxxxxxx |xxxxxxxxxxxxx |       396740 |       396745 |       396747 |xxxxxxxxxxxxx |xxxxxxxxxxxxx |xxxxxxxxxxxxx |xxxxxxxxxxxxx |       832887 |       832903 |       832906 |xxxxxxxxxxxxx |xxxxxxxxxxxxx |xxxxxxxxxxxxx |xxxxxxxxxxxxx |      1781571 |      1781631 |      1781634 |xxxxxxxxxxxxx |xxxxxxxxxxxxx |xxxxxxxxxxxxx |xxxxxxxxxxxxx |      3727020 |      3727072 |      3727075 |xxxxxxxxxxxxx |xxxxxxxxxxxxx |xxxxxxxxxxxxx |xxxxxxxxxxxxx |      7849519 |      7849600 |      7849661 |xxxxxxxxxxxxx |xxxxxxxxxxxxx |xxxxxxxxxxxxx |xxxxxxxxxxxxx |     24453370 |     24453913 |     24453915 |xxxxxxxxxxxxx |xxxxxxxxxxxxx |xxxxxxxxxxxxx |xxxxxxxxxxxxx |     54433372 |     54433715 |     54433708 |xxxxxxxxxxxxx |xxxxxxxxxxxxx |xxxxxxxxxxxxx |xxxxxxxxxxxxx |    116898813 |    116900940 |    116900929 |xxxxxxxxxxxxx |xxxxxxxxxxxxx |xxxxxxxxxxxxx |xxxxxxxxxxxxx |    252100486 |    252101837 |    252101842 |
bpred_bimod.misses                           25560 |        25553 |        25549 |xxxxxxxxxxxxx |xxxxxxxxxxxxx |xxxxxxxxxxxxx |xxxxxxxxxxxxx |        51571 |        51565 |        51563 |xxxxxxxxxxxxx |xxxxxxxxxxxxx |xxxxxxxxxxxxx |xxxxxxxxxxxxx |       118295 |       118290 |       118288 |xxxxxxxxxxxxx |xxxxxxxxxxxxx |xxxxxxxxxxxxx |xxxxxxxxxxxxx |       239217 |       239201 |       239198 |xxxxxxxxxxxxx |xxxxxxxxxxxxx |xxxxxxxxxxxxx |xxxxxxxxxxxxx |       538105 |       538045 |       538042 |xxxxxxxxxxxxx |xxxxxxxxxxxxx |xxxxxxxxxxxxx |xxxxxxxxxxxxx |      1085819 |      1085767 |      1085764 |xxxxxxxxxxxxx |xxxxxxxxxxxxx |xxxxxxxxxxxxx |xxxxxxxxxxxxx |      2301503 |      2301422 |      2301361 |xxxxxxxxxxxxx |xxxxxxxxxxxxx |xxxxxxxxxxxxx |xxxxxxxxxxxxx |      6228836 |      6228293 |      6228291 |xxxxxxxxxxxxx |xxxxxxxxxxxxx |xxxxxxxxxxxxx |xxxxxxxxxxxxx |     12751833 |     12751490 |     12751497 |xxxxxxxxxxxxx |xxxxxxxxxxxxx |xxxxxxxxxxxxx |xxxxxxxxxxxxx |     29084886 |     29082759 |     29082770 |xxxxxxxxxxxxx |xxxxxxxxxxxxx |xxxxxxxxxxxxx |xxxxxxxxxxxxx |     62462813 |     62461462 |     62461457 |
bpred_bimod.jr_hits                             79 |           79 |           79 |xxxxxxxxxxxxx |xxxxxxxxxxxxx |xxxxxxxxxxxxx |xxxxxxxxxxxxx |           87 |           87 |           87 |xxxxxxxxxxxxx |xxxxxxxxxxxxx |xxxxxxxxxxxxx |xxxxxxxxxxxxx |          103 |          103 |          103 |xxxxxxxxxxxxx |xxxxxxxxxxxxx |xxxxxxxxxxxxx |xxxxxxxxxxxxx |          135 |          135 |          135 |xxxxxxxxxxxxx |xxxxxxxxxxxxx |xxxxxxxxxxxxx |xxxxxxxxxxxxx |          199 |          199 |          199 |xxxxxxxxxxxxx |xxxxxxxxxxxxx |xxxxxxxxxxxxx |xxxxxxxxxxxxx |          327 |          327 |          327 |xxxxxxxxxxxxx |xxxxxxxxxxxxx |xxxxxxxxxxxxx |xxxxxxxxxxxxx |          583 |          583 |          583 |xxxxxxxxxxxxx |xxxxxxxxxxxxx |xxxxxxxxxxxxx |xxxxxxxxxxxxx |       525413 |       525413 |       525413 |xxxxxxxxxxxxx |xxxxxxxxxxxxx |xxxxxxxxxxxxx |xxxxxxxxxxxxx |      1050727 |      1050727 |      1050727 |xxxxxxxxxxxxx |xxxxxxxxxxxxx |xxxxxxxxxxxxx |xxxxxxxxxxxxx |      2101355 |      2101355 |      2101355 |xxxxxxxxxxxxx |xxxxxxxxxxxxx |xxxxxxxxxxxxx |xxxxxxxxxxxxx |      4202611 |      4202611 |      4202611 |
bpred_bimod.jr_seen                             80 |           80 |           80 |xxxxxxxxxxxxx |xxxxxxxxxxxxx |xxxxxxxxxxxxx |xxxxxxxxxxxxx |           88 |           88 |           88 |xxxxxxxxxxxxx |xxxxxxxxxxxxx |xxxxxxxxxxxxx |xxxxxxxxxxxxx |          104 |          104 |          104 |xxxxxxxxxxxxx |xxxxxxxxxxxxx |xxxxxxxxxxxxx |xxxxxxxxxxxxx |          136 |          136 |          136 |xxxxxxxxxxxxx |xxxxxxxxxxxxx |xxxxxxxxxxxxx |xxxxxxxxxxxxx |          200 |          200 |          200 |xxxxxxxxxxxxx |xxxxxxxxxxxxx |xxxxxxxxxxxxx |xxxxxxxxxxxxx |          328 |          328 |          328 |xxxxxxxxxxxxx |xxxxxxxxxxxxx |xxxxxxxxxxxxx |xxxxxxxxxxxxx |          584 |          584 |          584 |xxxxxxxxxxxxx |xxxxxxxxxxxxx |xxxxxxxxxxxxx |xxxxxxxxxxxxx |       525414 |       525414 |       525414 |xxxxxxxxxxxxx |xxxxxxxxxxxxx |xxxxxxxxxxxxx |xxxxxxxxxxxxx |      1050728 |      1050728 |      1050728 |xxxxxxxxxxxxx |xxxxxxxxxxxxx |xxxxxxxxxxxxx |xxxxxxxxxxxxx |      2101356 |      2101356 |      2101356 |xxxxxxxxxxxxx |xxxxxxxxxxxxx |xxxxxxxxxxxxx |xxxxxxxxxxxxx |      4202612 |      4202612 |      4202612 |
bpred_bimod.jr_non_ras_hits.PP                   0 |            0 |            0 |xxxxxxxxxxxxx |xxxxxxxxxxxxx |xxxxxxxxxxxxx |xxxxxxxxxxxxx |            0 |            0 |            0 |xxxxxxxxxxxxx |xxxxxxxxxxxxx |xxxxxxxxxxxxx |xxxxxxxxxxxxx |            0 |            0 |            0 |xxxxxxxxxxxxx |xxxxxxxxxxxxx |xxxxxxxxxxxxx |xxxxxxxxxxxxx |            0 |            0 |            0 |xxxxxxxxxxxxx |xxxxxxxxxxxxx |xxxxxxxxxxxxx |xxxxxxxxxxxxx |            0 |            0 |            0 |xxxxxxxxxxxxx |xxxxxxxxxxxxx |xxxxxxxxxxxxx |xxxxxxxxxxxxx |            0 |            0 |            0 |xxxxxxxxxxxxx |xxxxxxxxxxxxx |xxxxxxxxxxxxx |xxxxxxxxxxxxx |            0 |            0 |            0 |xxxxxxxxxxxxx |xxxxxxxxxxxxx |xxxxxxxxxxxxx |xxxxxxxxxxxxx |            0 |            0 |            0 |xxxxxxxxxxxxx |xxxxxxxxxxxxx |xxxxxxxxxxxxx |xxxxxxxxxxxxx |            0 |            0 |            0 |xxxxxxxxxxxxx |xxxxxxxxxxxxx |xxxxxxxxxxxxx |xxxxxxxxxxxxx |            0 |            0 |            0 |xxxxxxxxxxxxx |xxxxxxxxxxxxx |xxxxxxxxxxxxx |xxxxxxxxxxxxx |            0 |            0 |            0 |
bpred_bimod.jr_non_ras_seen.PP                   0 |            0 |            0 |xxxxxxxxxxxxx |xxxxxxxxxxxxx |xxxxxxxxxxxxx |xxxxxxxxxxxxx |            0 |            0 |            0 |xxxxxxxxxxxxx |xxxxxxxxxxxxx |xxxxxxxxxxxxx |xxxxxxxxxxxxx |            0 |            0 |            0 |xxxxxxxxxxxxx |xxxxxxxxxxxxx |xxxxxxxxxxxxx |xxxxxxxxxxxxx |            0 |            0 |            0 |xxxxxxxxxxxxx |xxxxxxxxxxxxx |xxxxxxxxxxxxx |xxxxxxxxxxxxx |            0 |            0 |            0 |xxxxxxxxxxxxx |xxxxxxxxxxxxx |xxxxxxxxxxxxx |xxxxxxxxxxxxx |            0 |            0 |            0 |xxxxxxxxxxxxx |xxxxxxxxxxxxx |xxxxxxxxxxxxx |xxxxxxxxxxxxx |            0 |            0 |            0 |xxxxxxxxxxxxx |xxxxxxxxxxxxx |xxxxxxxxxxxxx |xxxxxxxxxxxxx |            1 |            1 |            1 |xxxxxxxxxxxxx |xxxxxxxxxxxxx |xxxxxxxxxxxxx |xxxxxxxxxxxxx |            1 |            1 |            1 |xxxxxxxxxxxxx |xxxxxxxxxxxxx |xxxxxxxxxxxxx |xxxxxxxxxxxxx |            1 |            1 |            1 |xxxxxxxxxxxxx |xxxxxxxxxxxxx |xxxxxxxxxxxxx |xxxxxxxxxxxxx |            1 |            1 |            1 |
bpred_bimod.bpred_addr_rate                 0.7724 |       0.7725 |       0.7725 |xxxxxxxxxxxxx |xxxxxxxxxxxxx |xxxxxxxxxxxxx |xxxxxxxxxxxxx |       0.7805 |       0.7805 |       0.7805 |xxxxxxxxxxxxx |xxxxxxxxxxxxx |xxxxxxxxxxxxx |xxxxxxxxxxxxx |       0.7700 |       0.7700 |       0.7700 |xxxxxxxxxxxxx |xxxxxxxxxxxxx |xxxxxxxxxxxxx |xxxxxxxxxxxxx |       0.7767 |       0.7767 |       0.7768 |xxxxxxxxxxxxx |xxxxxxxxxxxxx |xxxxxxxxxxxxx |xxxxxxxxxxxxx |       0.7680 |       0.7680 |       0.7680 |xxxxxxxxxxxxx |xxxxxxxxxxxxx |xxxxxxxxxxxxx |xxxxxxxxxxxxx |       0.7744 |       0.7744 |       0.7744 |xxxxxxxxxxxxx |xxxxxxxxxxxxx |xxxxxxxxxxxxx |xxxxxxxxxxxxx |       0.7733 |       0.7733 |       0.7733 |xxxxxxxxxxxxx |xxxxxxxxxxxxx |xxxxxxxxxxxxx |xxxxxxxxxxxxx |       0.7970 |       0.7970 |       0.7970 |xxxxxxxxxxxxx |xxxxxxxxxxxxx |xxxxxxxxxxxxx |xxxxxxxxxxxxx |       0.8102 |       0.8102 |       0.8102 |xxxxxxxxxxxxx |xxxxxxxxxxxxx |xxxxxxxxxxxxx |xxxxxxxxxxxxx |       0.8008 |       0.8008 |       0.8008 |xxxxxxxxxxxxx |xxxxxxxxxxxxx |xxxxxxxxxxxxx |xxxxxxxxxxxxx |       0.8014 |       0.8014 |       0.8014 |
bpred_bimod.bpred_dir_rate                  0.7737 |       0.7738 |       0.7738 |xxxxxxxxxxxxx |xxxxxxxxxxxxx |xxxxxxxxxxxxx |xxxxxxxxxxxxx |       0.7811 |       0.7812 |       0.7812 |xxxxxxxxxxxxx |xxxxxxxxxxxxx |xxxxxxxxxxxxx |xxxxxxxxxxxxx |       0.7703 |       0.7703 |       0.7703 |xxxxxxxxxxxxx |xxxxxxxxxxxxx |xxxxxxxxxxxxx |xxxxxxxxxxxxx |       0.7769 |       0.7769 |       0.7769 |xxxxxxxxxxxxx |xxxxxxxxxxxxx |xxxxxxxxxxxxx |xxxxxxxxxxxxx |       0.7680 |       0.7681 |       0.7681 |xxxxxxxxxxxxx |xxxxxxxxxxxxx |xxxxxxxxxxxxx |xxxxxxxxxxxxx |       0.7744 |       0.7744 |       0.7744 |xxxxxxxxxxxxx |xxxxxxxxxxxxx |xxxxxxxxxxxxx |xxxxxxxxxxxxx |       0.7733 |       0.7733 |       0.7733 |xxxxxxxxxxxxx |xxxxxxxxxxxxx |xxxxxxxxxxxxx |xxxxxxxxxxxxx |       0.7970 |       0.7970 |       0.7970 |xxxxxxxxxxxxx |xxxxxxxxxxxxx |xxxxxxxxxxxxx |xxxxxxxxxxxxx |       0.8102 |       0.8102 |       0.8102 |xxxxxxxxxxxxx |xxxxxxxxxxxxx |xxxxxxxxxxxxx |xxxxxxxxxxxxx |       0.8008 |       0.8008 |       0.8008 |xxxxxxxxxxxxx |xxxxxxxxxxxxx |xxxxxxxxxxxxx |xxxxxxxxxxxxx |       0.8014 |       0.8014 |       0.8014 |
bpred_bimod.bpred_jr_rate                   0.9875 |       0.9875 |       0.9875 |xxxxxxxxxxxxx |xxxxxxxxxxxxx |xxxxxxxxxxxxx |xxxxxxxxxxxxx |       0.9886 |       0.9886 |       0.9886 |xxxxxxxxxxxxx |xxxxxxxxxxxxx |xxxxxxxxxxxxx |xxxxxxxxxxxxx |       0.9904 |       0.9904 |       0.9904 |xxxxxxxxxxxxx |xxxxxxxxxxxxx |xxxxxxxxxxxxx |xxxxxxxxxxxxx |       0.9926 |       0.9926 |       0.9926 |xxxxxxxxxxxxx |xxxxxxxxxxxxx |xxxxxxxxxxxxx |xxxxxxxxxxxxx |       0.9950 |       0.9950 |       0.9950 |xxxxxxxxxxxxx |xxxxxxxxxxxxx |xxxxxxxxxxxxx |xxxxxxxxxxxxx |       0.9970 |       0.9970 |       0.9970 |xxxxxxxxxxxxx |xxxxxxxxxxxxx |xxxxxxxxxxxxx |xxxxxxxxxxxxx |       0.9983 |       0.9983 |       0.9983 |xxxxxxxxxxxxx |xxxxxxxxxxxxx |xxxxxxxxxxxxx |xxxxxxxxxxxxx |       1.0000 |       1.0000 |       1.0000 |xxxxxxxxxxxxx |xxxxxxxxxxxxx |xxxxxxxxxxxxx |xxxxxxxxxxxxx |       1.0000 |       1.0000 |       1.0000 |xxxxxxxxxxxxx |xxxxxxxxxxxxx |xxxxxxxxxxxxx |xxxxxxxxxxxxx |       1.0000 |       1.0000 |       1.0000 |xxxxxxxxxxxxx |xxxxxxxxxxxxx |xxxxxxxxxxxxx |xxxxxxxxxxxxx |       1.0000 |       1.0000 |       1.0000 |
bpred_bimod.bpred_jr_non_ras_rate.PP       <error: |      <error: |      <error: |xxxxxxxxxxxxx |xxxxxxxxxxxxx |xxxxxxxxxxxxx |xxxxxxxxxxxxx |      <error: |      <error: |      <error: |xxxxxxxxxxxxx |xxxxxxxxxxxxx |xxxxxxxxxxxxx |xxxxxxxxxxxxx |      <error: |      <error: |      <error: |xxxxxxxxxxxxx |xxxxxxxxxxxxx |xxxxxxxxxxxxx |xxxxxxxxxxxxx |      <error: |      <error: |      <error: |xxxxxxxxxxxxx |xxxxxxxxxxxxx |xxxxxxxxxxxxx |xxxxxxxxxxxxx |      <error: |      <error: |      <error: |xxxxxxxxxxxxx |xxxxxxxxxxxxx |xxxxxxxxxxxxx |xxxxxxxxxxxxx |      <error: |      <error: |      <error: |xxxxxxxxxxxxx |xxxxxxxxxxxxx |xxxxxxxxxxxxx |xxxxxxxxxxxxx |      <error: |      <error: |      <error: |xxxxxxxxxxxxx |xxxxxxxxxxxxx |xxxxxxxxxxxxx |xxxxxxxxxxxxx |       0.0000 |       0.0000 |       0.0000 |xxxxxxxxxxxxx |xxxxxxxxxxxxx |xxxxxxxxxxxxx |xxxxxxxxxxxxx |       0.0000 |       0.0000 |       0.0000 |xxxxxxxxxxxxx |xxxxxxxxxxxxx |xxxxxxxxxxxxx |xxxxxxxxxxxxx |       0.0000 |       0.0000 |       0.0000 |xxxxxxxxxxxxx |xxxxxxxxxxxxx |xxxxxxxxxxxxx |xxxxxxxxxxxxx |       0.0000 |       0.0000 |       0.0000 |
bpred_bimod.retstack_pushes                     82 |           82 |           82 |xxxxxxxxxxxxx |xxxxxxxxxxxxx |xxxxxxxxxxxxx |xxxxxxxxxxxxx |           90 |           90 |           90 |xxxxxxxxxxxxx |xxxxxxxxxxxxx |xxxxxxxxxxxxx |xxxxxxxxxxxxx |          106 |          106 |          106 |xxxxxxxxxxxxx |xxxxxxxxxxxxx |xxxxxxxxxxxxx |xxxxxxxxxxxxx |          138 |          138 |          138 |xxxxxxxxxxxxx |xxxxxxxxxxxxx |xxxxxxxxxxxxx |xxxxxxxxxxxxx |          202 |          202 |          202 |xxxxxxxxxxxxx |xxxxxxxxxxxxx |xxxxxxxxxxxxx |xxxxxxxxxxxxx |          330 |          330 |          330 |xxxxxxxxxxxxx |xxxxxxxxxxxxx |xxxxxxxxxxxxx |xxxxxxxxxxxxx |          586 |          586 |          586 |xxxxxxxxxxxxx |xxxxxxxxxxxxx |xxxxxxxxxxxxx |xxxxxxxxxxxxx |       525415 |       525415 |       525415 |xxxxxxxxxxxxx |xxxxxxxxxxxxx |xxxxxxxxxxxxx |xxxxxxxxxxxxx |      1050729 |      1050729 |      1050729 |xxxxxxxxxxxxx |xxxxxxxxxxxxx |xxxxxxxxxxxxx |xxxxxxxxxxxxx |      2101357 |      2101357 |      2101357 |xxxxxxxxxxxxx |xxxxxxxxxxxxx |xxxxxxxxxxxxx |xxxxxxxxxxxxx |      4202613 |      4202613 |      4202613 |
bpred_bimod.retstack_pops                       80 |           80 |           80 |xxxxxxxxxxxxx |xxxxxxxxxxxxx |xxxxxxxxxxxxx |xxxxxxxxxxxxx |           88 |           88 |           88 |xxxxxxxxxxxxx |xxxxxxxxxxxxx |xxxxxxxxxxxxx |xxxxxxxxxxxxx |          104 |          104 |          104 |xxxxxxxxxxxxx |xxxxxxxxxxxxx |xxxxxxxxxxxxx |xxxxxxxxxxxxx |          136 |          136 |          136 |xxxxxxxxxxxxx |xxxxxxxxxxxxx |xxxxxxxxxxxxx |xxxxxxxxxxxxx |          200 |          200 |          200 |xxxxxxxxxxxxx |xxxxxxxxxxxxx |xxxxxxxxxxxxx |xxxxxxxxxxxxx |          328 |          328 |          328 |xxxxxxxxxxxxx |xxxxxxxxxxxxx |xxxxxxxxxxxxx |xxxxxxxxxxxxx |          584 |          584 |          584 |xxxxxxxxxxxxx |xxxxxxxxxxxxx |xxxxxxxxxxxxx |xxxxxxxxxxxxx |       525413 |       525413 |       525413 |xxxxxxxxxxxxx |xxxxxxxxxxxxx |xxxxxxxxxxxxx |xxxxxxxxxxxxx |      1050727 |      1050727 |      1050727 |xxxxxxxxxxxxx |xxxxxxxxxxxxx |xxxxxxxxxxxxx |xxxxxxxxxxxxx |      2101355 |      2101355 |      2101355 |xxxxxxxxxxxxx |xxxxxxxxxxxxx |xxxxxxxxxxxxx |xxxxxxxxxxxxx |      4202611 |      4202611 |      4202611 |
bpred_bimod.used_ras.PP                         80 |           80 |           80 |xxxxxxxxxxxxx |xxxxxxxxxxxxx |xxxxxxxxxxxxx |xxxxxxxxxxxxx |           88 |           88 |           88 |xxxxxxxxxxxxx |xxxxxxxxxxxxx |xxxxxxxxxxxxx |xxxxxxxxxxxxx |          104 |          104 |          104 |xxxxxxxxxxxxx |xxxxxxxxxxxxx |xxxxxxxxxxxxx |xxxxxxxxxxxxx |          136 |          136 |          136 |xxxxxxxxxxxxx |xxxxxxxxxxxxx |xxxxxxxxxxxxx |xxxxxxxxxxxxx |          200 |          200 |          200 |xxxxxxxxxxxxx |xxxxxxxxxxxxx |xxxxxxxxxxxxx |xxxxxxxxxxxxx |          328 |          328 |          328 |xxxxxxxxxxxxx |xxxxxxxxxxxxx |xxxxxxxxxxxxx |xxxxxxxxxxxxx |          584 |          584 |          584 |xxxxxxxxxxxxx |xxxxxxxxxxxxx |xxxxxxxxxxxxx |xxxxxxxxxxxxx |       525413 |       525413 |       525413 |xxxxxxxxxxxxx |xxxxxxxxxxxxx |xxxxxxxxxxxxx |xxxxxxxxxxxxx |      1050727 |      1050727 |      1050727 |xxxxxxxxxxxxx |xxxxxxxxxxxxx |xxxxxxxxxxxxx |xxxxxxxxxxxxx |      2101355 |      2101355 |      2101355 |xxxxxxxxxxxxx |xxxxxxxxxxxxx |xxxxxxxxxxxxx |xxxxxxxxxxxxx |      4202611 |      4202611 |      4202611 |
bpred_bimod.ras_hits.PP                         79 |           79 |           79 |xxxxxxxxxxxxx |xxxxxxxxxxxxx |xxxxxxxxxxxxx |xxxxxxxxxxxxx |           87 |           87 |           87 |xxxxxxxxxxxxx |xxxxxxxxxxxxx |xxxxxxxxxxxxx |xxxxxxxxxxxxx |          103 |          103 |          103 |xxxxxxxxxxxxx |xxxxxxxxxxxxx |xxxxxxxxxxxxx |xxxxxxxxxxxxx |          135 |          135 |          135 |xxxxxxxxxxxxx |xxxxxxxxxxxxx |xxxxxxxxxxxxx |xxxxxxxxxxxxx |          199 |          199 |          199 |xxxxxxxxxxxxx |xxxxxxxxxxxxx |xxxxxxxxxxxxx |xxxxxxxxxxxxx |          327 |          327 |          327 |xxxxxxxxxxxxx |xxxxxxxxxxxxx |xxxxxxxxxxxxx |xxxxxxxxxxxxx |          583 |          583 |          583 |xxxxxxxxxxxxx |xxxxxxxxxxxxx |xxxxxxxxxxxxx |xxxxxxxxxxxxx |       525413 |       525413 |       525413 |xxxxxxxxxxxxx |xxxxxxxxxxxxx |xxxxxxxxxxxxx |xxxxxxxxxxxxx |      1050727 |      1050727 |      1050727 |xxxxxxxxxxxxx |xxxxxxxxxxxxx |xxxxxxxxxxxxx |xxxxxxxxxxxxx |      2101355 |      2101355 |      2101355 |xxxxxxxxxxxxx |xxxxxxxxxxxxx |xxxxxxxxxxxxx |xxxxxxxxxxxxx |      4202611 |      4202611 |      4202611 |
bpred_bimod.ras_rate.PP                     0.9875 |       0.9875 |       0.9875 |xxxxxxxxxxxxx |xxxxxxxxxxxxx |xxxxxxxxxxxxx |xxxxxxxxxxxxx |       0.9886 |       0.9886 |       0.9886 |xxxxxxxxxxxxx |xxxxxxxxxxxxx |xxxxxxxxxxxxx |xxxxxxxxxxxxx |       0.9904 |       0.9904 |       0.9904 |xxxxxxxxxxxxx |xxxxxxxxxxxxx |xxxxxxxxxxxxx |xxxxxxxxxxxxx |       0.9926 |       0.9926 |       0.9926 |xxxxxxxxxxxxx |xxxxxxxxxxxxx |xxxxxxxxxxxxx |xxxxxxxxxxxxx |       0.9950 |       0.9950 |       0.9950 |xxxxxxxxxxxxx |xxxxxxxxxxxxx |xxxxxxxxxxxxx |xxxxxxxxxxxxx |       0.9970 |       0.9970 |       0.9970 |xxxxxxxxxxxxx |xxxxxxxxxxxxx |xxxxxxxxxxxxx |xxxxxxxxxxxxx |       0.9983 |       0.9983 |       0.9983 |xxxxxxxxxxxxx |xxxxxxxxxxxxx |xxxxxxxxxxxxx |xxxxxxxxxxxxx |       1.0000 |       1.0000 |       1.0000 |xxxxxxxxxxxxx |xxxxxxxxxxxxx |xxxxxxxxxxxxx |xxxxxxxxxxxxx |       1.0000 |       1.0000 |       1.0000 |xxxxxxxxxxxxx |xxxxxxxxxxxxx |xxxxxxxxxxxxx |xxxxxxxxxxxxx |       1.0000 |       1.0000 |       1.0000 |xxxxxxxxxxxxx |xxxxxxxxxxxxx |xxxxxxxxxxxxx |xxxxxxxxxxxxx |       1.0000 |       1.0000 |       1.0000 |
bpred_2lev.lookups                   xxxxxxxxxxxxx |xxxxxxxxxxxxx |xxxxxxxxxxxxx |       112955 |       112955 |       112955 |       112955 |xxxxxxxxxxxxx |xxxxxxxxxxxxx |xxxxxxxxxxxxx |       235640 |       235640 |       235640 |       235640 |xxxxxxxxxxxxx |xxxxxxxxxxxxx |xxxxxxxxxxxxx |       515035 |       515035 |       515035 |       515035 |xxxxxxxxxxxxx |xxxxxxxxxxxxx |xxxxxxxxxxxxx |      1072104 |      1072104 |      1072104 |      1072104 |xxxxxxxxxxxxx |xxxxxxxxxxxxx |xxxxxxxxxxxxx |      2319676 |      2319676 |      2319676 |      2319676 |xxxxxxxxxxxxx |xxxxxxxxxxxxx |xxxxxxxxxxxxx |      4812839 |      4812839 |      4812839 |      4812839 |xxxxxxxxxxxxx |xxxxxxxxxxxxx |xxxxxxxxxxxxx |     10151022 |     10151022 |     10151022 |     10151022 |xxxxxxxxxxxxx |xxxxxxxxxxxxx |xxxxxxxxxxxxx |     30682206 |     30682206 |     30682206 |     30682206 |xxxxxxxxxxxxx |xxxxxxxxxxxxx |xxxxxxxxxxxxx |     67185205 |     67185205 |     67185205 |     67185205 |xxxxxxxxxxxxx |xxxxxxxxxxxxx |xxxxxxxxxxxxx |    145983699 |    145983699 |    145983699 |    145983699 |xxxxxxxxxxxxx |xxxxxxxxxxxxx |xxxxxxxxxxxxx |    314563299 |    314563299 |    314563299 |    314563299 |
[...]
bpred_2lev.retstack_pushes           xxxxxxxxxxxxx |xxxxxxxxxxxxx |xxxxxxxxxxxxx |           82 |           82 |           82 |           82 |xxxxxxxxxxxxx |xxxxxxxxxxxxx |xxxxxxxxxxxxx |           90 |           90 |           90 |           90 |xxxxxxxxxxxxx |xxxxxxxxxxxxx |xxxxxxxxxxxxx |          106 |          106 |          106 |          106 |xxxxxxxxxxxxx |xxxxxxxxxxxxx |xxxxxxxxxxxxx |          138 |          138 |          138 |          138 |xxxxxxxxxxxxx |xxxxxxxxxxxxx |xxxxxxxxxxxxx |          202 |          202 |          202 |          202 |xxxxxxxxxxxxx |xxxxxxxxxxxxx |xxxxxxxxxxxxx |          330 |          330 |          330 |          330 |xxxxxxxxxxxxx |xxxxxxxxxxxxx |xxxxxxxxxxxxx |          586 |          586 |          586 |          586 |xxxxxxxxxxxxx |xxxxxxxxxxxxx |xxxxxxxxxxxxx |       525415 |       525415 |       525415 |       525415 |xxxxxxxxxxxxx |xxxxxxxxxxxxx |xxxxxxxxxxxxx |      1050729 |      1050729 |      1050729 |      1050729 |xxxxxxxxxxxxx |xxxxxxxxxxxxx |xxxxxxxxxxxxx |      2101357 |      2101357 |      2101357 |      2101357 |xxxxxxxxxxxxx |xxxxxxxxxxxxx |xxxxxxxxxxxxx |      4202613 |      4202613 |      4202613 |      4202613 |
bpred_2lev.retstack_pops             xxxxxxxxxxxxx |xxxxxxxxxxxxx |xxxxxxxxxxxxx |           80 |           80 |           80 |           80 |xxxxxxxxxxxxx |xxxxxxxxxxxxx |xxxxxxxxxxxxx |           88 |           88 |           88 |           88 |xxxxxxxxxxxxx |xxxxxxxxxxxxx |xxxxxxxxxxxxx |          104 |          104 |          104 |          104 |xxxxxxxxxxxxx |xxxxxxxxxxxxx |xxxxxxxxxxxxx |          136 |          136 |          136 |          136 |xxxxxxxxxxxxx |xxxxxxxxxxxxx |xxxxxxxxxxxxx |          200 |          200 |          200 |          200 |xxxxxxxxxxxxx |xxxxxxxxxxxxx |xxxxxxxxxxxxx |          328 |          328 |          328 |          328 |xxxxxxxxxxxxx |xxxxxxxxxxxxx |xxxxxxxxxxxxx |          584 |          584 |          584 |          584 |xxxxxxxxxxxxx |xxxxxxxxxxxxx |xxxxxxxxxxxxx |       525413 |       525413 |       525413 |       525413 |xxxxxxxxxxxxx |xxxxxxxxxxxxx |xxxxxxxxxxxxx |      1050727 |      1050727 |      1050727 |      1050727 |xxxxxxxxxxxxx |xxxxxxxxxxxxx |xxxxxxxxxxxxx |      2101355 |      2101355 |      2101355 |      2101355 |xxxxxxxxxxxxx |xxxxxxxxxxxxx |xxxxxxxxxxxxx |      4202611 |      4202611 |      4202611 |      4202611 |
bpred_2lev.used_ras.PP               xxxxxxxxxxxxx |xxxxxxxxxxxxx |xxxxxxxxxxxxx |           80 |           80 |           80 |           80 |xxxxxxxxxxxxx |xxxxxxxxxxxxx |xxxxxxxxxxxxx |           88 |           88 |           88 |           88 |xxxxxxxxxxxxx |xxxxxxxxxxxxx |xxxxxxxxxxxxx |          104 |          104 |          104 |          104 |xxxxxxxxxxxxx |xxxxxxxxxxxxx |xxxxxxxxxxxxx |          136 |          136 |          136 |          136 |xxxxxxxxxxxxx |xxxxxxxxxxxxx |xxxxxxxxxxxxx |          200 |          200 |          200 |          200 |xxxxxxxxxxxxx |xxxxxxxxxxxxx |xxxxxxxxxxxxx |          328 |          328 |          328 |          328 |xxxxxxxxxxxxx |xxxxxxxxxxxxx |xxxxxxxxxxxxx |          584 |          584 |          584 |          584 |xxxxxxxxxxxxx |xxxxxxxxxxxxx |xxxxxxxxxxxxx |       525413 |       525413 |       525413 |       525413 |xxxxxxxxxxxxx |xxxxxxxxxxxxx |xxxxxxxxxxxxx |      1050727 |      1050727 |      1050727 |      1050727 |xxxxxxxxxxxxx |xxxxxxxxxxxxx |xxxxxxxxxxxxx |      2101355 |      2101355 |      2101355 |      2101355 |xxxxxxxxxxxxx |xxxxxxxxxxxxx |xxxxxxxxxxxxx |      4202611 |      4202611 |      4202611 |      4202611 |
bpred_2lev.ras_hits.PP               xxxxxxxxxxxxx |xxxxxxxxxxxxx |xxxxxxxxxxxxx |           79 |           79 |           79 |           79 |xxxxxxxxxxxxx |xxxxxxxxxxxxx |xxxxxxxxxxxxx |           87 |           87 |           87 |           87 |xxxxxxxxxxxxx |xxxxxxxxxxxxx |xxxxxxxxxxxxx |          103 |          103 |          103 |          103 |xxxxxxxxxxxxx |xxxxxxxxxxxxx |xxxxxxxxxxxxx |          135 |          135 |          135 |          135 |xxxxxxxxxxxxx |xxxxxxxxxxxxx |xxxxxxxxxxxxx |          199 |          199 |          199 |          199 |xxxxxxxxxxxxx |xxxxxxxxxxxxx |xxxxxxxxxxxxx |          327 |          327 |          327 |          327 |xxxxxxxxxxxxx |xxxxxxxxxxxxx |xxxxxxxxxxxxx |          583 |          583 |          583 |          583 |xxxxxxxxxxxxx |xxxxxxxxxxxxx |xxxxxxxxxxxxx |       525413 |       525413 |       525413 |       525413 |xxxxxxxxxxxxx |xxxxxxxxxxxxx |xxxxxxxxxxxxx |      1050727 |      1050727 |      1050727 |      1050727 |xxxxxxxxxxxxx |xxxxxxxxxxxxx |xxxxxxxxxxxxx |      2101355 |      2101355 |      2101355 |      2101355 |xxxxxxxxxxxxx |xxxxxxxxxxxxx |xxxxxxxxxxxxx |      4202611 |      4202611 |      4202611 |      4202611 |
bpred_2lev.ras_rate.PP               xxxxxxxxxxxxx |xxxxxxxxxxxxx |xxxxxxxxxxxxx |       0.9875 |       0.9875 |       0.9875 |       0.9875 |xxxxxxxxxxxxx |xxxxxxxxxxxxx |xxxxxxxxxxxxx |       0.9886 |       0.9886 |       0.9886 |       0.9886 |xxxxxxxxxxxxx |xxxxxxxxxxxxx |xxxxxxxxxxxxx |       0.9904 |       0.9904 |       0.9904 |       0.9904 |xxxxxxxxxxxxx |xxxxxxxxxxxxx |xxxxxxxxxxxxx |       0.9926 |       0.9926 |       0.9926 |       0.9926 |xxxxxxxxxxxxx |xxxxxxxxxxxxx |xxxxxxxxxxxxx |       0.9950 |       0.9950 |       0.9950 |       0.9950 |xxxxxxxxxxxxx |xxxxxxxxxxxxx |xxxxxxxxxxxxx |       0.9970 |       0.9970 |       0.9970 |       0.9970 |xxxxxxxxxxxxx |xxxxxxxxxxxxx |xxxxxxxxxxxxx |       0.9983 |       0.9983 |       0.9983 |       0.9983 |xxxxxxxxxxxxx |xxxxxxxxxxxxx |xxxxxxxxxxxxx |       1.0000 |       1.0000 |       1.0000 |       1.0000 |xxxxxxxxxxxxx |xxxxxxxxxxxxx |xxxxxxxxxxxxx |       1.0000 |       1.0000 |       1.0000 |       1.0000 |xxxxxxxxxxxxx |xxxxxxxxxxxxx |xxxxxxxxxxxxx |       1.0000 |       1.0000 |       1.0000 |       1.0000 |xxxxxxxxxxxxx |xxxxxxxxxxxxx |xxxxxxxxxxxxx |       1.0000 |       1.0000 |       1.0000 |       1.0000 |

Command list: 
	sslittle-na-sstrix-gcc -Wall -O3 -funroll-loops -finline-functions  -DRANDOM_SIZE=4096 -DOFFSET=6 -DSORT=multi_mergesort sorts/multi_mergesort930808362.c simpleMain.c -o multi_mergesort1799849219
	sim-cache -cache:dl1 dl1:256:32:1:l -cache:dl2 dl2:131072:32:1:l -cache:il1 il1:256:32:1:l -cache:il2 dl2 multi_mergesort1799849219
	sim-cache -cache:dl1 dl1:256:32:1:l -cache:dl2 dl2:65536:32:1:l -cache:il1 il1:256:32:1:l -cache:il2 dl2 multi_mergesort1799849219
	sim-cache -cache:dl1 dl1:1:32:256:l -cache:dl2 dl2:1:32:131072:l -cache:il1 il1:1:32:256:l -cache:il2 dl2 multi_mergesort1799849219
	sim-cache -cache:dl1 dl1:1:32:256:l -cache:dl2 dl2:1:32:65536:l -cache:il1 il1:1:32:256:l -cache:il2 dl2 multi_mergesort1799849219
	sim-bpred -bpred bimod -bpred:bimod 512 multi_mergesort1799849219
	sim-bpred -bpred bimod -bpred:bimod 1024 multi_mergesort1799849219
	sim-bpred -bpred bimod -bpred:bimod 2048 multi_mergesort1799849219
	sim-bpred -bpred 2lev -bpred:2lev 1 512 10 1 multi_mergesort1799849219
	sim-bpred -bpred 2lev -bpred:2lev 1 1024 10 1 multi_mergesort1799849219
	sim-bpred -bpred 2lev -bpred:2lev 1 2048 10 1 multi_mergesort1799849219
	sim-bpred -bpred 2lev -bpred:2lev 1 4096 10 1 multi_mergesort1799849219
	sslittle-na-sstrix-gcc -Wall -O3 -funroll-loops -finline-functions  -DRANDOM_SIZE=8192 -DOFFSET=6 -DSORT=multi_mergesort sorts/multi_mergesort930808362.c simpleMain.c -o multi_mergesort1799849219
	sim-cache -cache:dl1 dl1:256:32:1:l -cache:dl2 dl2:131072:32:1:l -cache:il1 il1:256:32:1:l -cache:il2 dl2 multi_mergesort1799849219
	sim-cache -cache:dl1 dl1:256:32:1:l -cache:dl2 dl2:65536:32:1:l -cache:il1 il1:256:32:1:l -cache:il2 dl2 multi_mergesort1799849219
	sim-cache -cache:dl1 dl1:1:32:256:l -cache:dl2 dl2:1:32:131072:l -cache:il1 il1:1:32:256:l -cache:il2 dl2 multi_mergesort1799849219
	sim-cache -cache:dl1 dl1:1:32:256:l -cache:dl2 dl2:1:32:65536:l -cache:il1 il1:1:32:256:l -cache:il2 dl2 multi_mergesort1799849219
	sim-bpred -bpred bimod -bpred:bimod 512 multi_mergesort1799849219
	sim-bpred -bpred bimod -bpred:bimod 1024 multi_mergesort1799849219
	sim-bpred -bpred bimod -bpred:bimod 2048 multi_mergesort1799849219
	sim-bpred -bpred 2lev -bpred:2lev 1 512 10 1 multi_mergesort1799849219
	sim-bpred -bpred 2lev -bpred:2lev 1 1024 10 1 multi_mergesort1799849219
	sim-bpred -bpred 2lev -bpred:2lev 1 2048 10 1 multi_mergesort1799849219
	sim-bpred -bpred 2lev -bpred:2lev 1 4096 10 1 multi_mergesort1799849219
	sslittle-na-sstrix-gcc -Wall -O3 -funroll-loops -finline-functions  -DRANDOM_SIZE=16384 -DOFFSET=6 -DSORT=multi_mergesort sorts/multi_mergesort930808362.c simpleMain.c -o multi_mergesort1799849219
	sim-cache -cache:dl1 dl1:256:32:1:l -cache:dl2 dl2:131072:32:1:l -cache:il1 il1:256:32:1:l -cache:il2 dl2 multi_mergesort1799849219
	sim-cache -cache:dl1 dl1:256:32:1:l -cache:dl2 dl2:65536:32:1:l -cache:il1 il1:256:32:1:l -cache:il2 dl2 multi_mergesort1799849219
	sim-cache -cache:dl1 dl1:1:32:256:l -cache:dl2 dl2:1:32:131072:l -cache:il1 il1:1:32:256:l -cache:il2 dl2 multi_mergesort1799849219
	sim-cache -cache:dl1 dl1:1:32:256:l -cache:dl2 dl2:1:32:65536:l -cache:il1 il1:1:32:256:l -cache:il2 dl2 multi_mergesort1799849219
	sim-bpred -bpred bimod -bpred:bimod 512 multi_mergesort1799849219
	sim-bpred -bpred bimod -bpred:bimod 1024 multi_mergesort1799849219
	sim-bpred -bpred bimod -bpred:bimod 2048 multi_mergesort1799849219
	sim-bpred -bpred 2lev -bpred:2lev 1 512 10 1 multi_mergesort1799849219
	sim-bpred -bpred 2lev -bpred:2lev 1 1024 10 1 multi_mergesort1799849219
	sim-bpred -bpred 2lev -bpred:2lev 1 2048 10 1 multi_mergesort1799849219
	sim-bpred -bpred 2lev -bpred:2lev 1 4096 10 1 multi_mergesort1799849219
	sslittle-na-sstrix-gcc -Wall -O3 -funroll-loops -finline-functions  -DRANDOM_SIZE=32768 -DOFFSET=6 -DSORT=multi_mergesort sorts/multi_mergesort930808362.c simpleMain.c -o multi_mergesort1799849219
	sim-cache -cache:dl1 dl1:256:32:1:l -cache:dl2 dl2:131072:32:1:l -cache:il1 il1:256:32:1:l -cache:il2 dl2 multi_mergesort1799849219
	sim-cache -cache:dl1 dl1:256:32:1:l -cache:dl2 dl2:65536:32:1:l -cache:il1 il1:256:32:1:l -cache:il2 dl2 multi_mergesort1799849219
	sim-cache -cache:dl1 dl1:1:32:256:l -cache:dl2 dl2:1:32:131072:l -cache:il1 il1:1:32:256:l -cache:il2 dl2 multi_mergesort1799849219
	sim-cache -cache:dl1 dl1:1:32:256:l -cache:dl2 dl2:1:32:65536:l -cache:il1 il1:1:32:256:l -cache:il2 dl2 multi_mergesort1799849219
	sim-bpred -bpred bimod -bpred:bimod 512 multi_mergesort1799849219
	sim-bpred -bpred bimod -bpred:bimod 1024 multi_mergesort1799849219
	sim-bpred -bpred bimod -bpred:bimod 2048 multi_mergesort1799849219
	sim-bpred -bpred 2lev -bpred:2lev 1 512 10 1 multi_mergesort1799849219
	sim-bpred -bpred 2lev -bpred:2lev 1 1024 10 1 multi_mergesort1799849219
	sim-bpred -bpred 2lev -bpred:2lev 1 2048 10 1 multi_mergesort1799849219
	sim-bpred -bpred 2lev -bpred:2lev 1 4096 10 1 multi_mergesort1799849219
	sslittle-na-sstrix-gcc -Wall -O3 -funroll-loops -finline-functions  -DRANDOM_SIZE=65536 -DOFFSET=6 -DSORT=multi_mergesort sorts/multi_mergesort930808362.c simpleMain.c -o multi_mergesort1799849219
	sim-cache -cache:dl1 dl1:256:32:1:l -cache:dl2 dl2:131072:32:1:l -cache:il1 il1:256:32:1:l -cache:il2 dl2 multi_mergesort1799849219
	sim-cache -cache:dl1 dl1:256:32:1:l -cache:dl2 dl2:65536:32:1:l -cache:il1 il1:256:32:1:l -cache:il2 dl2 multi_mergesort1799849219
	sim-cache -cache:dl1 dl1:1:32:256:l -cache:dl2 dl2:1:32:131072:l -cache:il1 il1:1:32:256:l -cache:il2 dl2 multi_mergesort1799849219
	sim-cache -cache:dl1 dl1:1:32:256:l -cache:dl2 dl2:1:32:65536:l -cache:il1 il1:1:32:256:l -cache:il2 dl2 multi_mergesort1799849219
	sim-bpred -bpred bimod -bpred:bimod 512 multi_mergesort1799849219
	sim-bpred -bpred bimod -bpred:bimod 1024 multi_mergesort1799849219
	sim-bpred -bpred bimod -bpred:bimod 2048 multi_mergesort1799849219
	sim-bpred -bpred 2lev -bpred:2lev 1 512 10 1 multi_mergesort1799849219
	sim-bpred -bpred 2lev -bpred:2lev 1 1024 10 1 multi_mergesort1799849219
	sim-bpred -bpred 2lev -bpred:2lev 1 2048 10 1 multi_mergesort1799849219
	sim-bpred -bpred 2lev -bpred:2lev 1 4096 10 1 multi_mergesort1799849219
	sslittle-na-sstrix-gcc -Wall -O3 -funroll-loops -finline-functions  -DRANDOM_SIZE=131072 -DOFFSET=6 -DSORT=multi_mergesort sorts/multi_mergesort930808362.c simpleMain.c -o multi_mergesort1799849219
	sim-cache -cache:dl1 dl1:256:32:1:l -cache:dl2 dl2:131072:32:1:l -cache:il1 il1:256:32:1:l -cache:il2 dl2 multi_mergesort1799849219
	sim-cache -cache:dl1 dl1:256:32:1:l -cache:dl2 dl2:65536:32:1:l -cache:il1 il1:256:32:1:l -cache:il2 dl2 multi_mergesort1799849219
	sim-cache -cache:dl1 dl1:1:32:256:l -cache:dl2 dl2:1:32:131072:l -cache:il1 il1:1:32:256:l -cache:il2 dl2 multi_mergesort1799849219
	sim-cache -cache:dl1 dl1:1:32:256:l -cache:dl2 dl2:1:32:65536:l -cache:il1 il1:1:32:256:l -cache:il2 dl2 multi_mergesort1799849219
	sim-bpred -bpred bimod -bpred:bimod 512 multi_mergesort1799849219
	sim-bpred -bpred bimod -bpred:bimod 1024 multi_mergesort1799849219
	sim-bpred -bpred bimod -bpred:bimod 2048 multi_mergesort1799849219
	sim-bpred -bpred 2lev -bpred:2lev 1 512 10 1 multi_mergesort1799849219
	sim-bpred -bpred 2lev -bpred:2lev 1 1024 10 1 multi_mergesort1799849219
	sim-bpred -bpred 2lev -bpred:2lev 1 2048 10 1 multi_mergesort1799849219
	sim-bpred -bpred 2lev -bpred:2lev 1 4096 10 1 multi_mergesort1799849219
	sslittle-na-sstrix-gcc -Wall -O3 -funroll-loops -finline-functions  -DRANDOM_SIZE=262144 -DOFFSET=6 -DSORT=multi_mergesort sorts/multi_mergesort930808362.c simpleMain.c -o multi_mergesort1799849219
	sim-cache -cache:dl1 dl1:256:32:1:l -cache:dl2 dl2:131072:32:1:l -cache:il1 il1:256:32:1:l -cache:il2 dl2 multi_mergesort1799849219
	sim-cache -cache:dl1 dl1:256:32:1:l -cache:dl2 dl2:65536:32:1:l -cache:il1 il1:256:32:1:l -cache:il2 dl2 multi_mergesort1799849219
	sim-cache -cache:dl1 dl1:1:32:256:l -cache:dl2 dl2:1:32:131072:l -cache:il1 il1:1:32:256:l -cache:il2 dl2 multi_mergesort1799849219
	sim-cache -cache:dl1 dl1:1:32:256:l -cache:dl2 dl2:1:32:65536:l -cache:il1 il1:1:32:256:l -cache:il2 dl2 multi_mergesort1799849219
	sim-bpred -bpred bimod -bpred:bimod 512 multi_mergesort1799849219
	sim-bpred -bpred bimod -bpred:bimod 1024 multi_mergesort1799849219
	sim-bpred -bpred bimod -bpred:bimod 2048 multi_mergesort1799849219
	sim-bpred -bpred 2lev -bpred:2lev 1 512 10 1 multi_mergesort1799849219
	sim-bpred -bpred 2lev -bpred:2lev 1 1024 10 1 multi_mergesort1799849219
	sim-bpred -bpred 2lev -bpred:2lev 1 2048 10 1 multi_mergesort1799849219
	sim-bpred -bpred 2lev -bpred:2lev 1 4096 10 1 multi_mergesort1799849219
	sslittle-na-sstrix-gcc -Wall -O3 -funroll-loops -finline-functions  -DRANDOM_SIZE=524288 -DOFFSET=6 -DSORT=multi_mergesort sorts/multi_mergesort930808362.c simpleMain.c -o multi_mergesort1799849219
	sim-cache -cache:dl1 dl1:256:32:1:l -cache:dl2 dl2:131072:32:1:l -cache:il1 il1:256:32:1:l -cache:il2 dl2 multi_mergesort1799849219
	sim-cache -cache:dl1 dl1:256:32:1:l -cache:dl2 dl2:65536:32:1:l -cache:il1 il1:256:32:1:l -cache:il2 dl2 multi_mergesort1799849219
	sim-cache -cache:dl1 dl1:1:32:256:l -cache:dl2 dl2:1:32:131072:l -cache:il1 il1:1:32:256:l -cache:il2 dl2 multi_mergesort1799849219
	sim-cache -cache:dl1 dl1:1:32:256:l -cache:dl2 dl2:1:32:65536:l -cache:il1 il1:1:32:256:l -cache:il2 dl2 multi_mergesort1799849219
	sim-bpred -bpred bimod -bpred:bimod 512 multi_mergesort1799849219
	sim-bpred -bpred bimod -bpred:bimod 1024 multi_mergesort1799849219
	sim-bpred -bpred bimod -bpred:bimod 2048 multi_mergesort1799849219
	sim-bpred -bpred 2lev -bpred:2lev 1 512 10 1 multi_mergesort1799849219
	sim-bpred -bpred 2lev -bpred:2lev 1 1024 10 1 multi_mergesort1799849219
	sim-bpred -bpred 2lev -bpred:2lev 1 2048 10 1 multi_mergesort1799849219
	sim-bpred -bpred 2lev -bpred:2lev 1 4096 10 1 multi_mergesort1799849219
	sslittle-na-sstrix-gcc -Wall -O3 -funroll-loops -finline-functions  -DRANDOM_SIZE=1048576 -DOFFSET=6 -DSORT=multi_mergesort sorts/multi_mergesort930808362.c simpleMain.c -o multi_mergesort1799849219
	sim-cache -cache:dl1 dl1:256:32:1:l -cache:dl2 dl2:131072:32:1:l -cache:il1 il1:256:32:1:l -cache:il2 dl2 multi_mergesort1799849219
	sim-cache -cache:dl1 dl1:256:32:1:l -cache:dl2 dl2:65536:32:1:l -cache:il1 il1:256:32:1:l -cache:il2 dl2 multi_mergesort1799849219
	sim-cache -cache:dl1 dl1:1:32:256:l -cache:dl2 dl2:1:32:131072:l -cache:il1 il1:1:32:256:l -cache:il2 dl2 multi_mergesort1799849219
	sim-cache -cache:dl1 dl1:1:32:256:l -cache:dl2 dl2:1:32:65536:l -cache:il1 il1:1:32:256:l -cache:il2 dl2 multi_mergesort1799849219
	sim-bpred -bpred bimod -bpred:bimod 512 multi_mergesort1799849219
	sim-bpred -bpred bimod -bpred:bimod 1024 multi_mergesort1799849219
	sim-bpred -bpred bimod -bpred:bimod 2048 multi_mergesort1799849219
	sim-bpred -bpred 2lev -bpred:2lev 1 512 10 1 multi_mergesort1799849219
	sim-bpred -bpred 2lev -bpred:2lev 1 1024 10 1 multi_mergesort1799849219
	sim-bpred -bpred 2lev -bpred:2lev 1 2048 10 1 multi_mergesort1799849219
	sim-bpred -bpred 2lev -bpred:2lev 1 4096 10 1 multi_mergesort1799849219
	sslittle-na-sstrix-gcc -Wall -O3 -funroll-loops -finline-functions  -DRANDOM_SIZE=2097152 -DOFFSET=6 -DSORT=multi_mergesort sorts/multi_mergesort930808362.c simpleMain.c -o multi_mergesort1799849219
	sim-cache -cache:dl1 dl1:256:32:1:l -cache:dl2 dl2:131072:32:1:l -cache:il1 il1:256:32:1:l -cache:il2 dl2 multi_mergesort1799849219
	sim-cache -cache:dl1 dl1:256:32:1:l -cache:dl2 dl2:65536:32:1:l -cache:il1 il1:256:32:1:l -cache:il2 dl2 multi_mergesort1799849219
	sim-cache -cache:dl1 dl1:1:32:256:l -cache:dl2 dl2:1:32:131072:l -cache:il1 il1:1:32:256:l -cache:il2 dl2 multi_mergesort1799849219
	sim-cache -cache:dl1 dl1:1:32:256:l -cache:dl2 dl2:1:32:65536:l -cache:il1 il1:1:32:256:l -cache:il2 dl2 multi_mergesort1799849219
	sim-bpred -bpred bimod -bpred:bimod 512 multi_mergesort1799849219
	sim-bpred -bpred bimod -bpred:bimod 1024 multi_mergesort1799849219
	sim-bpred -bpred bimod -bpred:bimod 2048 multi_mergesort1799849219
	sim-bpred -bpred 2lev -bpred:2lev 1 512 10 1 multi_mergesort1799849219
	sim-bpred -bpred 2lev -bpred:2lev 1 1024 10 1 multi_mergesort1799849219
	sim-bpred -bpred 2lev -bpred:2lev 1 2048 10 1 multi_mergesort1799849219
	sim-bpred -bpred 2lev -bpred:2lev 1 4096 10 1 multi_mergesort1799849219
	sslittle-na-sstrix-gcc -Wall -O3 -funroll-loops -finline-functions  -DRANDOM_SIZE=4194304 -DOFFSET=6 -DSORT=multi_mergesort sorts/multi_mergesort930808362.c simpleMain.c -o multi_mergesort1799849219
	sim-cache -cache:dl1 dl1:256:32:1:l -cache:dl2 dl2:131072:32:1:l -cache:il1 il1:256:32:1:l -cache:il2 dl2 multi_mergesort1799849219
	sim-cache -cache:dl1 dl1:256:32:1:l -cache:dl2 dl2:65536:32:1:l -cache:il1 il1:256:32:1:l -cache:il2 dl2 multi_mergesort1799849219
	sim-cache -cache:dl1 dl1:1:32:256:l -cache:dl2 dl2:1:32:131072:l -cache:il1 il1:1:32:256:l -cache:il2 dl2 multi_mergesort1799849219
	sim-cache -cache:dl1 dl1:1:32:256:l -cache:dl2 dl2:1:32:65536:l -cache:il1 il1:1:32:256:l -cache:il2 dl2 multi_mergesort1799849219
	sim-bpred -bpred bimod -bpred:bimod 512 multi_mergesort1799849219
	sim-bpred -bpred bimod -bpred:bimod 1024 multi_mergesort1799849219
	sim-bpred -bpred bimod -bpred:bimod 2048 multi_mergesort1799849219
	sim-bpred -bpred 2lev -bpred:2lev 1 512 10 1 multi_mergesort1799849219
	sim-bpred -bpred 2lev -bpred:2lev 1 1024 10 1 multi_mergesort1799849219
	sim-bpred -bpred 2lev -bpred:2lev 1 2048 10 1 multi_mergesort1799849219
	sim-bpred -bpred 2lev -bpred:2lev 1 4096 10 1 multi_mergesort1799849219
