Wed Jul 13 03:59:37 2005
Run as: "./do_simple -c random.org5 -o 5 multi_quicksort"
-------------------------------------------------------------------------------------------------
sim-cache                                     4096 |         4096 |         4096 |         4096 |         8192 |         8192 |         8192 |         8192 |        16384 |        16384 |        16384 |        16384 |        32768 |        32768 |        32768 |        32768 |        65536 |        65536 |        65536 |        65536 |       131072 |       131072 |       131072 |       131072 |       262144 |       262144 |       262144 |       262144 |       524288 |       524288 |       524288 |       524288 |      1048576 |      1048576 |      1048576 |      1048576 |      2097152 |      2097152 |      2097152 |      2097152 |      4194304 |      4194304 |      4194304 |      4194304 |
-cache:dl1 dl1:256:32:1:l -cache:dl2 dl2:131072:32:1:l -cache:il1 il1:256:32:1:l -cache:il2 dl2
-cache:dl1 dl1:256:32:1:l -cache:dl2 dl2:65536:32:1:l -cache:il1 il1:256:32:1:l -cache:il2 dl2
-cache:dl1 dl1:1:32:256:l -cache:dl2 dl2:1:32:131072:l -cache:il1 il1:1:32:256:l -cache:il2 dl2
-cache:dl1 dl1:1:32:256:l -cache:dl2 dl2:1:32:65536:l -cache:il1 il1:1:32:256:l -cache:il2 dl2
-------------------------------------------------------------------------------------------------
sim_num_insn                                471638 |       471638 |       471638 |       471638 |      1004453 |      1004453 |      1004453 |      1004453 |      2152212 |      2152212 |      2152212 |      2152212 |      4651906 |      4651906 |      4651906 |      4651906 |      9794594 |      9794594 |      9794594 |      9794594 |     20806761 |     20806761 |     20806761 |     20806761 |     43783671 |     43783671 |     43783671 |     43783671 |     91484718 |     91484718 |     91484718 |     91484718 |    194627558 |    194627558 |    194627558 |    194627558 |    533053170 |    533053170 |    533053170 |    533053170 |   1101401182 |   1101401182 |   1101401182 |   1101401182 |
sim_num_refs                                123762 |       123762 |       123762 |       123762 |       260146 |       260146 |       260146 |       260146 |       552478 |       552478 |       552478 |       552478 |      1176223 |      1176223 |      1176223 |      1176223 |      2475256 |      2475256 |      2475256 |      2475256 |      5225362 |      5225362 |      5225362 |      5225362 |     10971200 |     10971200 |     10971200 |     10971200 |     22928640 |     22928640 |     22928640 |     22928640 |     48358389 |     48358389 |     48358389 |     48358389 |    129100416 |    129100416 |    129100416 |    129100416 |    263453268 |    263453268 |    263453268 |    263453268 |
sim_elapsed_time                                 1 |            1 |            7 |            3 |            1 |            1 |           10 |            6 |            1 |            1 |           16 |            8 |            1 |            1 |           27 |           13 |            3 |            3 |           49 |           25 |            6 |            5 |           92 |           45 |           12 |           12 |          168 |           79 |           25 |           25 |          289 |          112 |           53 |           53 |          401 |          142 |          146 |          147 |          501 |          242 |          301 |          302 |          666 |          406 |
sim_inst_rate                          471638.0000 |  471638.0000 |   67376.8571 |  157212.6667 | 1004453.0000 | 1004453.0000 |  100445.3000 |  167408.8333 | 2152212.0000 | 2152212.0000 |  134513.2500 |  269026.5000 | 4651906.0000 | 4651906.0000 |  172292.8148 |  357838.9231 | 3264864.6667 | 3264864.6667 |  199889.6735 |  391783.7600 | 3467793.5000 | 4161352.2000 |  226160.4457 |  462372.4667 | 3648639.2500 | 3648639.2500 |  260617.0893 |  554223.6835 | 3659388.7200 | 3659388.7200 |  316556.1176 |  816827.8393 | 3672218.0755 | 3672218.0755 |  485355.5062 | 1370616.6056 | 3651049.1096 | 3626212.0408 | 1063978.3832 | 2202699.0496 | 3659140.1395 | 3647023.7815 | 1653755.5285 | 2712810.7931 |
il1.accesses                                471638 |       471638 |       471638 |       471638 |      1004453 |      1004453 |      1004453 |      1004453 |      2152212 |      2152212 |      2152212 |      2152212 |      4651906 |      4651906 |      4651906 |      4651906 |      9794594 |      9794594 |      9794594 |      9794594 |     20806761 |     20806761 |     20806761 |     20806761 |     43783671 |     43783671 |     43783671 |     43783671 |     91484718 |     91484718 |     91484718 |     91484718 |    194627558 |    194627558 |    194627558 |    194627558 |    533053170 |    533053170 |    533053170 |    533053170 |   1101401182 |   1101401182 |   1101401182 |   1101401182 |
il1.hits                                    471158 |       471158 |       471197 |       471197 |      1003978 |      1003978 |      1004015 |      1004015 |      2151754 |      2151754 |      2151782 |      2151782 |      4651427 |      4651427 |      4651463 |      4651463 |      9794118 |      9794118 |      9794154 |      9794154 |     20806282 |     20806282 |     20806318 |     20806318 |     43783195 |     43783195 |     43783231 |     43783231 |     91484239 |     91484239 |     91484275 |     91484275 |    194627082 |    194627082 |    194627118 |    194627118 |    533052417 |    533052417 |    533052467 |    533052467 |   1101400435 |   1101400435 |   1101400485 |   1101400485 |
il1.misses                                     480 |          480 |          441 |          441 |          475 |          475 |          438 |          438 |          458 |          458 |          430 |          430 |          479 |          479 |          443 |          443 |          476 |          476 |          440 |          440 |          479 |          479 |          443 |          443 |          476 |          476 |          440 |          440 |          479 |          479 |          443 |          443 |          476 |          476 |          440 |          440 |          753 |          753 |          703 |          703 |          747 |          747 |          697 |          697 |
il1.replacements                               239 |          239 |          185 |          185 |          234 |          234 |          182 |          182 |          214 |          214 |          174 |          174 |          236 |          236 |          187 |          187 |          233 |          233 |          184 |          184 |          236 |          236 |          187 |          187 |          233 |          233 |          184 |          184 |          236 |          236 |          187 |          187 |          233 |          233 |          184 |          184 |          497 |          497 |          447 |          447 |          491 |          491 |          441 |          441 |
il1.writebacks                                   0 |            0 |            0 |            0 |            0 |            0 |            0 |            0 |            0 |            0 |            0 |            0 |            0 |            0 |            0 |            0 |            0 |            0 |            0 |            0 |            0 |            0 |            0 |            0 |            0 |            0 |            0 |            0 |            0 |            0 |            0 |            0 |            0 |            0 |            0 |            0 |            0 |            0 |            0 |            0 |            0 |            0 |            0 |            0 |
il1.invalidations                                0 |            0 |            0 |            0 |            0 |            0 |            0 |            0 |            0 |            0 |            0 |            0 |            0 |            0 |            0 |            0 |            0 |            0 |            0 |            0 |            0 |            0 |            0 |            0 |            0 |            0 |            0 |            0 |            0 |            0 |            0 |            0 |            0 |            0 |            0 |            0 |            0 |            0 |            0 |            0 |            0 |            0 |            0 |            0 |
il1.miss_rate                               0.0010 |       0.0010 |       0.0009 |       0.0009 |       0.0005 |       0.0005 |       0.0004 |       0.0004 |       0.0002 |       0.0002 |       0.0002 |       0.0002 |       0.0001 |       0.0001 |       0.0001 |       0.0001 |       0.0000 |       0.0000 |       0.0000 |       0.0000 |       0.0000 |       0.0000 |       0.0000 |       0.0000 |       0.0000 |       0.0000 |       0.0000 |       0.0000 |       0.0000 |       0.0000 |       0.0000 |       0.0000 |       0.0000 |       0.0000 |       0.0000 |       0.0000 |       0.0000 |       0.0000 |       0.0000 |       0.0000 |       0.0000 |       0.0000 |       0.0000 |       0.0000 |
il1.repl_rate                               0.0005 |       0.0005 |       0.0004 |       0.0004 |       0.0002 |       0.0002 |       0.0002 |       0.0002 |       0.0001 |       0.0001 |       0.0001 |       0.0001 |       0.0001 |       0.0001 |       0.0000 |       0.0000 |       0.0000 |       0.0000 |       0.0000 |       0.0000 |       0.0000 |       0.0000 |       0.0000 |       0.0000 |       0.0000 |       0.0000 |       0.0000 |       0.0000 |       0.0000 |       0.0000 |       0.0000 |       0.0000 |       0.0000 |       0.0000 |       0.0000 |       0.0000 |       0.0000 |       0.0000 |       0.0000 |       0.0000 |       0.0000 |       0.0000 |       0.0000 |       0.0000 |
il1.wb_rate                                 0.0000 |       0.0000 |       0.0000 |       0.0000 |       0.0000 |       0.0000 |       0.0000 |       0.0000 |       0.0000 |       0.0000 |       0.0000 |       0.0000 |       0.0000 |       0.0000 |       0.0000 |       0.0000 |       0.0000 |       0.0000 |       0.0000 |       0.0000 |       0.0000 |       0.0000 |       0.0000 |       0.0000 |       0.0000 |       0.0000 |       0.0000 |       0.0000 |       0.0000 |       0.0000 |       0.0000 |       0.0000 |       0.0000 |       0.0000 |       0.0000 |       0.0000 |       0.0000 |       0.0000 |       0.0000 |       0.0000 |       0.0000 |       0.0000 |       0.0000 |       0.0000 |
il1.inv_rate                                0.0000 |       0.0000 |       0.0000 |       0.0000 |       0.0000 |       0.0000 |       0.0000 |       0.0000 |       0.0000 |       0.0000 |       0.0000 |       0.0000 |       0.0000 |       0.0000 |       0.0000 |       0.0000 |       0.0000 |       0.0000 |       0.0000 |       0.0000 |       0.0000 |       0.0000 |       0.0000 |       0.0000 |       0.0000 |       0.0000 |       0.0000 |       0.0000 |       0.0000 |       0.0000 |       0.0000 |       0.0000 |       0.0000 |       0.0000 |       0.0000 |       0.0000 |       0.0000 |       0.0000 |       0.0000 |       0.0000 |       0.0000 |       0.0000 |       0.0000 |       0.0000 |
dl1.accesses                                140228 |       140228 |       140228 |       140228 |       292996 |       292996 |       292996 |       292996 |       618096 |       618096 |       618096 |       618096 |      1307377 |      1307377 |      1307377 |      1307377 |      2737482 |      2737482 |      2737482 |      2737482 |      5749732 |      5749732 |      5749732 |      5749732 |     12019858 |     12019858 |     12019858 |     12019858 |     25025874 |     25025874 |     25025874 |     25025874 |     52552775 |     52552775 |     52552775 |     52552775 |    137489107 |    137489107 |    137489107 |    137489107 |    280230567 |    280230567 |    280230567 |    280230567 |
dl1.hits                                    137717 |       137717 |       137645 |       137645 |       287994 |       287994 |       288066 |       288066 |       605266 |       605266 |       605326 |       605326 |      1277908 |      1277908 |      1277847 |      1277847 |      2670554 |      2670554 |      2670916 |      2670916 |      5597310 |      5597310 |      5597960 |      5597960 |     11679775 |     11679775 |     11682120 |     11682120 |     24290805 |     24290805 |     24297618 |     24297618 |     50865981 |     50865981 |     50884179 |     50884179 |    128870201 |    128870201 |    133796245 |    133796245 |    267027741 |    267027741 |    272655619 |    272655619 |
dl1.misses                                    2511 |         2511 |         2583 |         2583 |         5002 |         5002 |         4930 |         4930 |        12830 |        12830 |        12770 |        12770 |        29469 |        29469 |        29530 |        29530 |        66928 |        66928 |        66566 |        66566 |       152422 |       152422 |       151772 |       151772 |       340083 |       340083 |       337738 |       337738 |       735069 |       735069 |       728256 |       728256 |      1686794 |      1686794 |      1668596 |      1668596 |      8618906 |      8618906 |      3692862 |      3692862 |     13202826 |     13202826 |      7574948 |      7574948 |
dl1.replacements                              2255 |         2255 |         2327 |         2327 |         4746 |         4746 |         4674 |         4674 |        12574 |        12574 |        12514 |        12514 |        29213 |        29213 |        29274 |        29274 |        66672 |        66672 |        66310 |        66310 |       152166 |       152166 |       151516 |       151516 |       339827 |       339827 |       337482 |       337482 |       734813 |       734813 |       728000 |       728000 |      1686538 |      1686538 |      1668340 |      1668340 |      8618650 |      8618650 |      3692606 |      3692606 |     13202570 |     13202570 |      7574692 |      7574692 |
dl1.writebacks                                2040 |         2040 |         2108 |         2108 |         4548 |         4548 |         4532 |         4532 |        11601 |        11601 |        11675 |        11675 |        26383 |        26383 |        26647 |        26647 |        61376 |        61376 |        61612 |        61612 |       141467 |       141467 |       142246 |       142246 |       314642 |       314642 |       315530 |       315530 |       689519 |       689519 |       690065 |       690065 |      1559631 |      1559631 |      1558731 |      1558731 |      5408436 |      5408436 |      2979833 |      2979833 |     10296025 |     10296025 |      6111595 |      6111595 |
dl1.invalidations                                0 |            0 |            0 |            0 |            0 |            0 |            0 |            0 |            0 |            0 |            0 |            0 |            0 |            0 |            0 |            0 |            0 |            0 |            0 |            0 |            0 |            0 |            0 |            0 |            0 |            0 |            0 |            0 |            0 |            0 |            0 |            0 |            0 |            0 |            0 |            0 |            0 |            0 |            0 |            0 |            0 |            0 |            0 |            0 |
dl1.miss_rate                               0.0179 |       0.0179 |       0.0184 |       0.0184 |       0.0171 |       0.0171 |       0.0168 |       0.0168 |       0.0208 |       0.0208 |       0.0207 |       0.0207 |       0.0225 |       0.0225 |       0.0226 |       0.0226 |       0.0244 |       0.0244 |       0.0243 |       0.0243 |       0.0265 |       0.0265 |       0.0264 |       0.0264 |       0.0283 |       0.0283 |       0.0281 |       0.0281 |       0.0294 |       0.0294 |       0.0291 |       0.0291 |       0.0321 |       0.0321 |       0.0318 |       0.0318 |       0.0627 |       0.0627 |       0.0269 |       0.0269 |       0.0471 |       0.0471 |       0.0270 |       0.0270 |
dl1.repl_rate                               0.0161 |       0.0161 |       0.0166 |       0.0166 |       0.0162 |       0.0162 |       0.0160 |       0.0160 |       0.0203 |       0.0203 |       0.0202 |       0.0202 |       0.0223 |       0.0223 |       0.0224 |       0.0224 |       0.0244 |       0.0244 |       0.0242 |       0.0242 |       0.0265 |       0.0265 |       0.0264 |       0.0264 |       0.0283 |       0.0283 |       0.0281 |       0.0281 |       0.0294 |       0.0294 |       0.0291 |       0.0291 |       0.0321 |       0.0321 |       0.0317 |       0.0317 |       0.0627 |       0.0627 |       0.0269 |       0.0269 |       0.0471 |       0.0471 |       0.0270 |       0.0270 |
dl1.wb_rate                                 0.0145 |       0.0145 |       0.0150 |       0.0150 |       0.0155 |       0.0155 |       0.0155 |       0.0155 |       0.0188 |       0.0188 |       0.0189 |       0.0189 |       0.0202 |       0.0202 |       0.0204 |       0.0204 |       0.0224 |       0.0224 |       0.0225 |       0.0225 |       0.0246 |       0.0246 |       0.0247 |       0.0247 |       0.0262 |       0.0262 |       0.0263 |       0.0263 |       0.0276 |       0.0276 |       0.0276 |       0.0276 |       0.0297 |       0.0297 |       0.0297 |       0.0297 |       0.0393 |       0.0393 |       0.0217 |       0.0217 |       0.0367 |       0.0367 |       0.0218 |       0.0218 |
dl1.inv_rate                                0.0000 |       0.0000 |       0.0000 |       0.0000 |       0.0000 |       0.0000 |       0.0000 |       0.0000 |       0.0000 |       0.0000 |       0.0000 |       0.0000 |       0.0000 |       0.0000 |       0.0000 |       0.0000 |       0.0000 |       0.0000 |       0.0000 |       0.0000 |       0.0000 |       0.0000 |       0.0000 |       0.0000 |       0.0000 |       0.0000 |       0.0000 |       0.0000 |       0.0000 |       0.0000 |       0.0000 |       0.0000 |       0.0000 |       0.0000 |       0.0000 |       0.0000 |       0.0000 |       0.0000 |       0.0000 |       0.0000 |       0.0000 |       0.0000 |       0.0000 |       0.0000 |
dl2.accesses                                  5031 |         5031 |         5132 |         5132 |        10025 |        10025 |         9900 |         9900 |        24889 |        24889 |        24875 |        24875 |        56331 |        56331 |        56620 |        56620 |       128780 |       128780 |       128618 |       128618 |       294368 |       294368 |       294461 |       294461 |       655201 |       655201 |       653708 |       653708 |      1425067 |      1425067 |      1418764 |      1418764 |      3246901 |      3246901 |      3227767 |      3227767 |     14028095 |     14028095 |      6673398 |      6673398 |     23499598 |     23499598 |     13687240 |     13687240 |
dl2.hits                                      3599 |         3599 |         3741 |         3741 |         8084 |         8084 |         8000 |         8000 |        21949 |        21949 |        21973 |        21973 |        51327 |        51327 |        51659 |        51659 |       119682 |       119682 |       119563 |       119563 |       277075 |       277075 |       277211 |       277211 |       621527 |       621527 |       620077 |       620077 |      1358622 |      1358022 |      1352362 |      1300313 |      3114268 |      2891417 |      3029958 |      2834644 |     12672755 |     12637974 |      5370377 |      5305128 |     20793929 |     20680681 |     11026885 |     10880101 |
dl2.misses                                    1432 |         1432 |         1391 |         1391 |         1941 |         1941 |         1900 |         1900 |         2940 |         2940 |         2902 |         2902 |         5004 |         5004 |         4961 |         4961 |         9098 |         9098 |         9055 |         9055 |        17293 |        17293 |        17250 |        17250 |        33674 |        33674 |        33631 |        33631 |        66445 |        67045 |        66402 |       118451 |       132633 |       355484 |       197809 |       393123 |      1355340 |      1390121 |      1303021 |      1368270 |      2705669 |      2818917 |      2660355 |      2807139 |
dl2.replacements                               291 |          291 |            0 |            0 |          288 |          288 |            0 |            0 |          289 |          289 |            0 |            0 |          295 |          295 |            0 |            0 |          292 |          292 |            0 |            0 |          295 |          295 |            0 |            0 |          292 |          292 |            0 |            0 |          295 |         1509 |            0 |        52915 |         1561 |       289948 |        66737 |       327587 |      1224268 |      1324585 |      1171949 |      1302734 |      2574597 |      2753381 |      2529283 |      2741603 |
dl2.writebacks                                 154 |          154 |            0 |            0 |          153 |          153 |            0 |            0 |          152 |          152 |            0 |            0 |          153 |          153 |            0 |            0 |          153 |          153 |            0 |            0 |          153 |          153 |            0 |            0 |          153 |          153 |            0 |            0 |          153 |         1240 |            0 |        52571 |         1279 |       285573 |        66507 |       322333 |       738409 |       809586 |       720080 |       813472 |      1563083 |      1703805 |      1551725 |      1705852 |
dl2.invalidations                                0 |            0 |            0 |            0 |            0 |            0 |            0 |            0 |            0 |            0 |            0 |            0 |            0 |            0 |            0 |            0 |            0 |            0 |            0 |            0 |            0 |            0 |            0 |            0 |            0 |            0 |            0 |            0 |            0 |            0 |            0 |            0 |            0 |            0 |            0 |            0 |            0 |            0 |            0 |            0 |            0 |            0 |            0 |            0 |
dl2.miss_rate                               0.2846 |       0.2846 |       0.2710 |       0.2710 |       0.1936 |       0.1936 |       0.1919 |       0.1919 |       0.1181 |       0.1181 |       0.1167 |       0.1167 |       0.0888 |       0.0888 |       0.0876 |       0.0876 |       0.0706 |       0.0706 |       0.0704 |       0.0704 |       0.0587 |       0.0587 |       0.0586 |       0.0586 |       0.0514 |       0.0514 |       0.0514 |       0.0514 |       0.0466 |       0.0470 |       0.0468 |       0.0835 |       0.0408 |       0.1095 |       0.0613 |       0.1218 |       0.0966 |       0.0991 |       0.1953 |       0.2050 |       0.1151 |       0.1200 |       0.1944 |       0.2051 |
dl2.repl_rate                               0.0578 |       0.0578 |       0.0000 |       0.0000 |       0.0287 |       0.0287 |       0.0000 |       0.0000 |       0.0116 |       0.0116 |       0.0000 |       0.0000 |       0.0052 |       0.0052 |       0.0000 |       0.0000 |       0.0023 |       0.0023 |       0.0000 |       0.0000 |       0.0010 |       0.0010 |       0.0000 |       0.0000 |       0.0004 |       0.0004 |       0.0000 |       0.0000 |       0.0002 |       0.0011 |       0.0000 |       0.0373 |       0.0005 |       0.0893 |       0.0207 |       0.1015 |       0.0873 |       0.0944 |       0.1756 |       0.1952 |       0.1096 |       0.1172 |       0.1848 |       0.2003 |
dl2.wb_rate                                 0.0306 |       0.0306 |       0.0000 |       0.0000 |       0.0153 |       0.0153 |       0.0000 |       0.0000 |       0.0061 |       0.0061 |       0.0000 |       0.0000 |       0.0027 |       0.0027 |       0.0000 |       0.0000 |       0.0012 |       0.0012 |       0.0000 |       0.0000 |       0.0005 |       0.0005 |       0.0000 |       0.0000 |       0.0002 |       0.0002 |       0.0000 |       0.0000 |       0.0001 |       0.0009 |       0.0000 |       0.0371 |       0.0004 |       0.0880 |       0.0206 |       0.0999 |       0.0526 |       0.0577 |       0.1079 |       0.1219 |       0.0665 |       0.0725 |       0.1134 |       0.1246 |
dl2.inv_rate                                0.0000 |       0.0000 |       0.0000 |       0.0000 |       0.0000 |       0.0000 |       0.0000 |       0.0000 |       0.0000 |       0.0000 |       0.0000 |       0.0000 |       0.0000 |       0.0000 |       0.0000 |       0.0000 |       0.0000 |       0.0000 |       0.0000 |       0.0000 |       0.0000 |       0.0000 |       0.0000 |       0.0000 |       0.0000 |       0.0000 |       0.0000 |       0.0000 |       0.0000 |       0.0000 |       0.0000 |       0.0000 |       0.0000 |       0.0000 |       0.0000 |       0.0000 |       0.0000 |       0.0000 |       0.0000 |       0.0000 |       0.0000 |       0.0000 |       0.0000 |       0.0000 |
itlb.accesses                               471638 |       471638 |       471638 |       471638 |      1004453 |      1004453 |      1004453 |      1004453 |      2152212 |      2152212 |      2152212 |      2152212 |      4651906 |      4651906 |      4651906 |      4651906 |      9794594 |      9794594 |      9794594 |      9794594 |     20806761 |     20806761 |     20806761 |     20806761 |     43783671 |     43783671 |     43783671 |     43783671 |     91484718 |     91484718 |     91484718 |     91484718 |    194627558 |    194627558 |    194627558 |    194627558 |    533053170 |    533053170 |    533053170 |    533053170 |   1101401182 |   1101401182 |   1101401182 |   1101401182 |
itlb.hits                                   471627 |       471627 |       471627 |       471627 |      1004442 |      1004442 |      1004442 |      1004442 |      2152201 |      2152201 |      2152201 |      2152201 |      4651894 |      4651894 |      4651894 |      4651894 |      9794582 |      9794582 |      9794582 |      9794582 |     20806749 |     20806749 |     20806749 |     20806749 |     43783659 |     43783659 |     43783659 |     43783659 |     91484706 |     91484706 |     91484706 |     91484706 |    194627546 |    194627546 |    194627546 |    194627546 |    533053158 |    533053158 |    533053158 |    533053158 |   1101401170 |   1101401170 |   1101401170 |   1101401170 |
itlb.misses                                     11 |           11 |           11 |           11 |           11 |           11 |           11 |           11 |           11 |           11 |           11 |           11 |           12 |           12 |           12 |           12 |           12 |           12 |           12 |           12 |           12 |           12 |           12 |           12 |           12 |           12 |           12 |           12 |           12 |           12 |           12 |           12 |           12 |           12 |           12 |           12 |           12 |           12 |           12 |           12 |           12 |           12 |           12 |           12 |
itlb.replacements                                0 |            0 |            0 |            0 |            0 |            0 |            0 |            0 |            0 |            0 |            0 |            0 |            0 |            0 |            0 |            0 |            0 |            0 |            0 |            0 |            0 |            0 |            0 |            0 |            0 |            0 |            0 |            0 |            0 |            0 |            0 |            0 |            0 |            0 |            0 |            0 |            0 |            0 |            0 |            0 |            0 |            0 |            0 |            0 |
itlb.writebacks                                  0 |            0 |            0 |            0 |            0 |            0 |            0 |            0 |            0 |            0 |            0 |            0 |            0 |            0 |            0 |            0 |            0 |            0 |            0 |            0 |            0 |            0 |            0 |            0 |            0 |            0 |            0 |            0 |            0 |            0 |            0 |            0 |            0 |            0 |            0 |            0 |            0 |            0 |            0 |            0 |            0 |            0 |            0 |            0 |
itlb.invalidations                               0 |            0 |            0 |            0 |            0 |            0 |            0 |            0 |            0 |            0 |            0 |            0 |            0 |            0 |            0 |            0 |            0 |            0 |            0 |            0 |            0 |            0 |            0 |            0 |            0 |            0 |            0 |            0 |            0 |            0 |            0 |            0 |            0 |            0 |            0 |            0 |            0 |            0 |            0 |            0 |            0 |            0 |            0 |            0 |
itlb.miss_rate                              0.0000 |       0.0000 |       0.0000 |       0.0000 |       0.0000 |       0.0000 |       0.0000 |       0.0000 |       0.0000 |       0.0000 |       0.0000 |       0.0000 |       0.0000 |       0.0000 |       0.0000 |       0.0000 |       0.0000 |       0.0000 |       0.0000 |       0.0000 |       0.0000 |       0.0000 |       0.0000 |       0.0000 |       0.0000 |       0.0000 |       0.0000 |       0.0000 |       0.0000 |       0.0000 |       0.0000 |       0.0000 |       0.0000 |       0.0000 |       0.0000 |       0.0000 |       0.0000 |       0.0000 |       0.0000 |       0.0000 |       0.0000 |       0.0000 |       0.0000 |       0.0000 |
itlb.repl_rate                              0.0000 |       0.0000 |       0.0000 |       0.0000 |       0.0000 |       0.0000 |       0.0000 |       0.0000 |       0.0000 |       0.0000 |       0.0000 |       0.0000 |       0.0000 |       0.0000 |       0.0000 |       0.0000 |       0.0000 |       0.0000 |       0.0000 |       0.0000 |       0.0000 |       0.0000 |       0.0000 |       0.0000 |       0.0000 |       0.0000 |       0.0000 |       0.0000 |       0.0000 |       0.0000 |       0.0000 |       0.0000 |       0.0000 |       0.0000 |       0.0000 |       0.0000 |       0.0000 |       0.0000 |       0.0000 |       0.0000 |       0.0000 |       0.0000 |       0.0000 |       0.0000 |
itlb.wb_rate                                0.0000 |       0.0000 |       0.0000 |       0.0000 |       0.0000 |       0.0000 |       0.0000 |       0.0000 |       0.0000 |       0.0000 |       0.0000 |       0.0000 |       0.0000 |       0.0000 |       0.0000 |       0.0000 |       0.0000 |       0.0000 |       0.0000 |       0.0000 |       0.0000 |       0.0000 |       0.0000 |       0.0000 |       0.0000 |       0.0000 |       0.0000 |       0.0000 |       0.0000 |       0.0000 |       0.0000 |       0.0000 |       0.0000 |       0.0000 |       0.0000 |       0.0000 |       0.0000 |       0.0000 |       0.0000 |       0.0000 |       0.0000 |       0.0000 |       0.0000 |       0.0000 |
itlb.inv_rate                               0.0000 |       0.0000 |       0.0000 |       0.0000 |       0.0000 |       0.0000 |       0.0000 |       0.0000 |       0.0000 |       0.0000 |       0.0000 |       0.0000 |       0.0000 |       0.0000 |       0.0000 |       0.0000 |       0.0000 |       0.0000 |       0.0000 |       0.0000 |       0.0000 |       0.0000 |       0.0000 |       0.0000 |       0.0000 |       0.0000 |       0.0000 |       0.0000 |       0.0000 |       0.0000 |       0.0000 |       0.0000 |       0.0000 |       0.0000 |       0.0000 |       0.0000 |       0.0000 |       0.0000 |       0.0000 |       0.0000 |       0.0000 |       0.0000 |       0.0000 |       0.0000 |
dtlb.accesses                               140228 |       140228 |       140228 |       140228 |       292996 |       292996 |       292996 |       292996 |       618096 |       618096 |       618096 |       618096 |      1307377 |      1307377 |      1307377 |      1307377 |      2737482 |      2737482 |      2737482 |      2737482 |      5749732 |      5749732 |      5749732 |      5749732 |     12019858 |     12019858 |     12019858 |     12019858 |     25025874 |     25025874 |     25025874 |     25025874 |     52552775 |     52552775 |     52552775 |     52552775 |    137489107 |    137489107 |    137489107 |    137489107 |    280230567 |    280230567 |    280230567 |    280230567 |
dtlb.hits                                   140216 |       140216 |       140216 |       140216 |       292980 |       292980 |       292980 |       292980 |       618072 |       618072 |       618072 |       618072 |      1307337 |      1307337 |      1307337 |      1307337 |      2737410 |      2737410 |      2737410 |      2737410 |      5749572 |      5749572 |      5749572 |      5749572 |     12019075 |     12019075 |     12019075 |     12019075 |     25023881 |     25023881 |     25023881 |     25023881 |     52547059 |     52547059 |     52547059 |     52547059 |    137474803 |    137474803 |    137474803 |    137474803 |    280200858 |    280200858 |    280200858 |    280200858 |
dtlb.misses                                     12 |           12 |           12 |           12 |           16 |           16 |           16 |           16 |           24 |           24 |           24 |           24 |           40 |           40 |           40 |           40 |           72 |           72 |           72 |           72 |          160 |          160 |          160 |          160 |          783 |          783 |          783 |          783 |         1993 |         1993 |         1993 |         1993 |         5716 |         5716 |         5716 |         5716 |        14304 |        14304 |        14304 |        14304 |        29709 |        29709 |        29709 |        29709 |
dtlb.replacements                                0 |            0 |            0 |            0 |            0 |            0 |            0 |            0 |            0 |            0 |            0 |            0 |            0 |            0 |            0 |            0 |            0 |            0 |            0 |            0 |           32 |           32 |           32 |           32 |          655 |          655 |          655 |          655 |         1865 |         1865 |         1865 |         1865 |         5588 |         5588 |         5588 |         5588 |        14176 |        14176 |        14176 |        14176 |        29581 |        29581 |        29581 |        29581 |
dtlb.writebacks                                  0 |            0 |            0 |            0 |            0 |            0 |            0 |            0 |            0 |            0 |            0 |            0 |            0 |            0 |            0 |            0 |            0 |            0 |            0 |            0 |           30 |           30 |           30 |           30 |          653 |          653 |          653 |          653 |         1863 |         1863 |         1863 |         1863 |         5586 |         5586 |         5586 |         5586 |        12112 |        12112 |        12112 |        12112 |        25457 |        25457 |        25457 |        25457 |
dtlb.invalidations                               0 |            0 |            0 |            0 |            0 |            0 |            0 |            0 |            0 |            0 |            0 |            0 |            0 |            0 |            0 |            0 |            0 |            0 |            0 |            0 |            0 |            0 |            0 |            0 |            0 |            0 |            0 |            0 |            0 |            0 |            0 |            0 |            0 |            0 |            0 |            0 |            0 |            0 |            0 |            0 |            0 |            0 |            0 |            0 |
dtlb.miss_rate                              0.0001 |       0.0001 |       0.0001 |       0.0001 |       0.0001 |       0.0001 |       0.0001 |       0.0001 |       0.0000 |       0.0000 |       0.0000 |       0.0000 |       0.0000 |       0.0000 |       0.0000 |       0.0000 |       0.0000 |       0.0000 |       0.0000 |       0.0000 |       0.0000 |       0.0000 |       0.0000 |       0.0000 |       0.0001 |       0.0001 |       0.0001 |       0.0001 |       0.0001 |       0.0001 |       0.0001 |       0.0001 |       0.0001 |       0.0001 |       0.0001 |       0.0001 |       0.0001 |       0.0001 |       0.0001 |       0.0001 |       0.0001 |       0.0001 |       0.0001 |       0.0001 |
dtlb.repl_rate                              0.0000 |       0.0000 |       0.0000 |       0.0000 |       0.0000 |       0.0000 |       0.0000 |       0.0000 |       0.0000 |       0.0000 |       0.0000 |       0.0000 |       0.0000 |       0.0000 |       0.0000 |       0.0000 |       0.0000 |       0.0000 |       0.0000 |       0.0000 |       0.0000 |       0.0000 |       0.0000 |       0.0000 |       0.0001 |       0.0001 |       0.0001 |       0.0001 |       0.0001 |       0.0001 |       0.0001 |       0.0001 |       0.0001 |       0.0001 |       0.0001 |       0.0001 |       0.0001 |       0.0001 |       0.0001 |       0.0001 |       0.0001 |       0.0001 |       0.0001 |       0.0001 |
dtlb.wb_rate                                0.0000 |       0.0000 |       0.0000 |       0.0000 |       0.0000 |       0.0000 |       0.0000 |       0.0000 |       0.0000 |       0.0000 |       0.0000 |       0.0000 |       0.0000 |       0.0000 |       0.0000 |       0.0000 |       0.0000 |       0.0000 |       0.0000 |       0.0000 |       0.0000 |       0.0000 |       0.0000 |       0.0000 |       0.0001 |       0.0001 |       0.0001 |       0.0001 |       0.0001 |       0.0001 |       0.0001 |       0.0001 |       0.0001 |       0.0001 |       0.0001 |       0.0001 |       0.0001 |       0.0001 |       0.0001 |       0.0001 |       0.0001 |       0.0001 |       0.0001 |       0.0001 |
dtlb.inv_rate                               0.0000 |       0.0000 |       0.0000 |       0.0000 |       0.0000 |       0.0000 |       0.0000 |       0.0000 |       0.0000 |       0.0000 |       0.0000 |       0.0000 |       0.0000 |       0.0000 |       0.0000 |       0.0000 |       0.0000 |       0.0000 |       0.0000 |       0.0000 |       0.0000 |       0.0000 |       0.0000 |       0.0000 |       0.0000 |       0.0000 |       0.0000 |       0.0000 |       0.0000 |       0.0000 |       0.0000 |       0.0000 |       0.0000 |       0.0000 |       0.0000 |       0.0000 |       0.0000 |       0.0000 |       0.0000 |       0.0000 |       0.0000 |       0.0000 |       0.0000 |       0.0000 |
ld_text_base                            0x00400000 |   0x00400000 |   0x00400000 |   0x00400000 |   0x00400000 |   0x00400000 |   0x00400000 |   0x00400000 |   0x00400000 |   0x00400000 |   0x00400000 |   0x00400000 |   0x00400000 |   0x00400000 |   0x00400000 |   0x00400000 |   0x00400000 |   0x00400000 |   0x00400000 |   0x00400000 |   0x00400000 |   0x00400000 |   0x00400000 |   0x00400000 |   0x00400000 |   0x00400000 |   0x00400000 |   0x00400000 |   0x00400000 |   0x00400000 |   0x00400000 |   0x00400000 |   0x00400000 |   0x00400000 |   0x00400000 |   0x00400000 |   0x00400000 |   0x00400000 |   0x00400000 |   0x00400000 |   0x00400000 |   0x00400000 |   0x00400000 |   0x00400000 |
ld_text_size                                 78496 |        78496 |        78496 |        78496 |        78528 |        78528 |        78528 |        78528 |        78544 |        78544 |        78544 |        78544 |        78560 |        78560 |        78560 |        78560 |        78560 |        78560 |        78560 |        78560 |        78560 |        78560 |        78560 |        78560 |        78560 |        78560 |        78560 |        78560 |        78560 |        78560 |        78560 |        78560 |        78560 |        78560 |        78560 |        78560 |        78560 |        78560 |        78560 |        78560 |        78560 |        78560 |        78560 |        78560 |
ld_data_base                            0x10000000 |   0x10000000 |   0x10000000 |   0x10000000 |   0x10000000 |   0x10000000 |   0x10000000 |   0x10000000 |   0x10000000 |   0x10000000 |   0x10000000 |   0x10000000 |   0x10000000 |   0x10000000 |   0x10000000 |   0x10000000 |   0x10000000 |   0x10000000 |   0x10000000 |   0x10000000 |   0x10000000 |   0x10000000 |   0x10000000 |   0x10000000 |   0x10000000 |   0x10000000 |   0x10000000 |   0x10000000 |   0x10000000 |   0x10000000 |   0x10000000 |   0x10000000 |   0x10000000 |   0x10000000 |   0x10000000 |   0x10000000 |   0x10000000 |   0x10000000 |   0x10000000 |   0x10000000 |   0x10000000 |   0x10000000 |   0x10000000 |   0x10000000 |
ld_data_size                                  8192 |         8192 |         8192 |         8192 |         8192 |         8192 |         8192 |         8192 |         8192 |         8192 |         8192 |         8192 |         8192 |         8192 |         8192 |         8192 |         8192 |         8192 |         8192 |         8192 |         8192 |         8192 |         8192 |         8192 |         8192 |         8192 |         8192 |         8192 |         8192 |         8192 |         8192 |         8192 |         8192 |         8192 |         8192 |         8192 |         8192 |         8192 |         8192 |         8192 |         8192 |         8192 |         8192 |         8192 |
ld_stack_base                           0x7fffc000 |   0x7fffc000 |   0x7fffc000 |   0x7fffc000 |   0x7fffc000 |   0x7fffc000 |   0x7fffc000 |   0x7fffc000 |   0x7fffc000 |   0x7fffc000 |   0x7fffc000 |   0x7fffc000 |   0x7fffc000 |   0x7fffc000 |   0x7fffc000 |   0x7fffc000 |   0x7fffc000 |   0x7fffc000 |   0x7fffc000 |   0x7fffc000 |   0x7fffc000 |   0x7fffc000 |   0x7fffc000 |   0x7fffc000 |   0x7fffc000 |   0x7fffc000 |   0x7fffc000 |   0x7fffc000 |   0x7fffc000 |   0x7fffc000 |   0x7fffc000 |   0x7fffc000 |   0x7fffc000 |   0x7fffc000 |   0x7fffc000 |   0x7fffc000 |   0x7fffc000 |   0x7fffc000 |   0x7fffc000 |   0x7fffc000 |   0x7fffc000 |   0x7fffc000 |   0x7fffc000 |   0x7fffc000 |
ld_stack_size                                16384 |        16384 |        16384 |        16384 |        16384 |        16384 |        16384 |        16384 |        16384 |        16384 |        16384 |        16384 |        16384 |        16384 |        16384 |        16384 |        16384 |        16384 |        16384 |        16384 |        16384 |        16384 |        16384 |        16384 |        16384 |        16384 |        16384 |        16384 |        16384 |        16384 |        16384 |        16384 |        16384 |        16384 |        16384 |        16384 |        16384 |        16384 |        16384 |        16384 |        16384 |        16384 |        16384 |        16384 |
ld_prog_entry                           0x00400140 |   0x00400140 |   0x00400140 |   0x00400140 |   0x00400140 |   0x00400140 |   0x00400140 |   0x00400140 |   0x00400140 |   0x00400140 |   0x00400140 |   0x00400140 |   0x00400140 |   0x00400140 |   0x00400140 |   0x00400140 |   0x00400140 |   0x00400140 |   0x00400140 |   0x00400140 |   0x00400140 |   0x00400140 |   0x00400140 |   0x00400140 |   0x00400140 |   0x00400140 |   0x00400140 |   0x00400140 |   0x00400140 |   0x00400140 |   0x00400140 |   0x00400140 |   0x00400140 |   0x00400140 |   0x00400140 |   0x00400140 |   0x00400140 |   0x00400140 |   0x00400140 |   0x00400140 |   0x00400140 |   0x00400140 |   0x00400140 |   0x00400140 |
ld_environ_base                         0x7fff8000 |   0x7fff8000 |   0x7fff8000 |   0x7fff8000 |   0x7fff8000 |   0x7fff8000 |   0x7fff8000 |   0x7fff8000 |   0x7fff8000 |   0x7fff8000 |   0x7fff8000 |   0x7fff8000 |   0x7fff8000 |   0x7fff8000 |   0x7fff8000 |   0x7fff8000 |   0x7fff8000 |   0x7fff8000 |   0x7fff8000 |   0x7fff8000 |   0x7fff8000 |   0x7fff8000 |   0x7fff8000 |   0x7fff8000 |   0x7fff8000 |   0x7fff8000 |   0x7fff8000 |   0x7fff8000 |   0x7fff8000 |   0x7fff8000 |   0x7fff8000 |   0x7fff8000 |   0x7fff8000 |   0x7fff8000 |   0x7fff8000 |   0x7fff8000 |   0x7fff8000 |   0x7fff8000 |   0x7fff8000 |   0x7fff8000 |   0x7fff8000 |   0x7fff8000 |   0x7fff8000 |   0x7fff8000 |
ld_target_big_endian                             0 |            0 |            0 |            0 |            0 |            0 |            0 |            0 |            0 |            0 |            0 |            0 |            0 |            0 |            0 |            0 |            0 |            0 |            0 |            0 |            0 |            0 |            0 |            0 |            0 |            0 |            0 |            0 |            0 |            0 |            0 |            0 |            0 |            0 |            0 |            0 |            0 |            0 |            0 |            0 |            0 |            0 |            0 |            0 |
mem.page_count                                  32 |           32 |           32 |           32 |           36 |           36 |           36 |           36 |           44 |           44 |           44 |           44 |           60 |           60 |           60 |           60 |           92 |           92 |           92 |           92 |          156 |          156 |          156 |          156 |          284 |          284 |          284 |          284 |          540 |          540 |          540 |          540 |         1052 |         1052 |         1052 |         1052 |         4148 |         4148 |         4148 |         4148 |         8268 |         8268 |         8268 |         8268 |
mem.page_mem                                  128k |         128k |         128k |         128k |         144k |         144k |         144k |         144k |         176k |         176k |         176k |         176k |         240k |         240k |         240k |         240k |         368k |         368k |         368k |         368k |         624k |         624k |         624k |         624k |        1136k |        1136k |        1136k |        1136k |        2160k |        2160k |        2160k |        2160k |        4208k |        4208k |        4208k |        4208k |       16592k |       16592k |       16592k |       16592k |       33072k |       33072k |       33072k |       33072k |
mem.ptab_misses                                 32 |           32 |           32 |           32 |           36 |           36 |           36 |           36 |           44 |           44 |           44 |           44 |           60 |           60 |           60 |           60 |           92 |           92 |           92 |           92 |          156 |          156 |          156 |          156 |          284 |          284 |          284 |          284 |          540 |          540 |          540 |          540 |         1052 |         1052 |         1052 |         1052 |        22562 |        22562 |        22562 |        22562 |        26682 |        26682 |        26682 |        26682 |
mem.ptab_accesses                          2652638 |      2652638 |      2652638 |      2652638 |      5089626 |      5089626 |      5089626 |      5089626 |     10330958 |     10330958 |     10330958 |     10330958 |     21708392 |     21708392 |     21708392 |     21708392 |     45139354 |     45139354 |     45139354 |     45139354 |     95212522 |     95212522 |     95212522 |     95212522 |    199660414 |    199660414 |    199660414 |    199660414 |    416476634 |    416476634 |    416476634 |    416476634 |    884101796 |    884101796 |    884101796 |    884101796 |   2407676908 |   2407676908 |   2407676908 |   2407676908 |   4966551876 |   4966551876 |   4966551876 |   4966551876 |
mem.ptab_miss_rate                          0.0000 |       0.0000 |       0.0000 |       0.0000 |       0.0000 |       0.0000 |       0.0000 |       0.0000 |       0.0000 |       0.0000 |       0.0000 |       0.0000 |       0.0000 |       0.0000 |       0.0000 |       0.0000 |       0.0000 |       0.0000 |       0.0000 |       0.0000 |       0.0000 |       0.0000 |       0.0000 |       0.0000 |       0.0000 |       0.0000 |       0.0000 |       0.0000 |       0.0000 |       0.0000 |       0.0000 |       0.0000 |       0.0000 |       0.0000 |       0.0000 |       0.0000 |       0.0000 |       0.0000 |       0.0000 |       0.0000 |       0.0000 |       0.0000 |       0.0000 |       0.0000 |
-------------------------------------------------------------------------------------------------
sim-bpred                                     4096 |         4096 |         4096 |         4096 |         4096 |         4096 |         4096 |         8192 |         8192 |         8192 |         8192 |         8192 |         8192 |         8192 |        16384 |        16384 |        16384 |        16384 |        16384 |        16384 |        16384 |        32768 |        32768 |        32768 |        32768 |        32768 |        32768 |        32768 |        65536 |        65536 |        65536 |        65536 |        65536 |        65536 |        65536 |       131072 |       131072 |       131072 |       131072 |       131072 |       131072 |       131072 |       262144 |       262144 |       262144 |       262144 |       262144 |       262144 |       262144 |       524288 |       524288 |       524288 |       524288 |       524288 |       524288 |       524288 |      1048576 |      1048576 |      1048576 |      1048576 |      1048576 |      1048576 |      1048576 |      2097152 |      2097152 |      2097152 |      2097152 |      2097152 |      2097152 |      2097152 |      4194304 |      4194304 |      4194304 |      4194304 |      4194304 |      4194304 |      4194304 |
-bpred bimod -bpred:bimod 512
-bpred bimod -bpred:bimod 1024
-bpred bimod -bpred:bimod 2048
-bpred 2lev -bpred:2lev 1 512 10 1
-bpred 2lev -bpred:2lev 1 1024 10 1
-bpred 2lev -bpred:2lev 1 2048 10 1
-bpred 2lev -bpred:2lev 1 4096 10 1
-------------------------------------------------------------------------------------------------
sim_num_insn                                471638 |       471638 |       471638 |       471638 |       471638 |       471638 |       471638 |      1004453 |      1004453 |      1004453 |      1004453 |      1004453 |      1004453 |      1004453 |      2152212 |      2152212 |      2152212 |      2152212 |      2152212 |      2152212 |      2152212 |      4651906 |      4651906 |      4651906 |      4651906 |      4651906 |      4651906 |      4651906 |      9794594 |      9794594 |      9794594 |      9794594 |      9794594 |      9794594 |      9794594 |     20806761 |     20806761 |     20806761 |     20806761 |     20806761 |     20806761 |     20806761 |     43783671 |     43783671 |     43783671 |     43783671 |     43783671 |     43783671 |     43783671 |     91484718 |     91484718 |     91484718 |     91484718 |     91484718 |     91484718 |     91484718 |    194627558 |    194627558 |    194627558 |    194627558 |    194627558 |    194627558 |    194627558 |    533053170 |    533053170 |    533053170 |    533053170 |    533053170 |    533053170 |    533053170 |   1101401182 |   1101401182 |   1101401182 |   1101401182 |   1101401182 |   1101401182 |   1101401182 |
sim_num_refs                                123762 |       123762 |       123762 |       123762 |       123762 |       123762 |       123762 |       260146 |       260146 |       260146 |       260146 |       260146 |       260146 |       260146 |       552478 |       552478 |       552478 |       552478 |       552478 |       552478 |       552478 |      1176223 |      1176223 |      1176223 |      1176223 |      1176223 |      1176223 |      1176223 |      2475256 |      2475256 |      2475256 |      2475256 |      2475256 |      2475256 |      2475256 |      5225362 |      5225362 |      5225362 |      5225362 |      5225362 |      5225362 |      5225362 |     10971200 |     10971200 |     10971200 |     10971200 |     10971200 |     10971200 |     10971200 |     22928640 |     22928640 |     22928640 |     22928640 |     22928640 |     22928640 |     22928640 |     48358389 |     48358389 |     48358389 |     48358389 |     48358389 |     48358389 |     48358389 |    129100416 |    129100416 |    129100416 |    129100416 |    129100416 |    129100416 |    129100416 |    263453268 |    263453268 |    263453268 |    263453268 |    263453268 |    263453268 |    263453268 |
sim_elapsed_time                                 1 |            1 |            1 |            1 |            1 |            1 |            1 |            1 |            1 |            1 |            1 |            1 |            1 |            1 |            1 |            1 |            1 |            1 |            1 |            1 |            1 |            1 |            1 |            1 |            1 |            1 |            1 |            1 |            1 |            1 |            2 |            1 |            1 |            1 |            2 |            3 |            3 |            2 |            3 |            2 |            3 |            3 |            5 |            5 |            6 |            5 |            6 |            5 |            6 |           11 |           12 |           11 |           11 |           12 |           11 |           12 |           24 |           24 |           24 |           24 |           25 |           24 |           24 |           68 |           68 |           68 |           69 |           68 |           69 |           69 |          140 |          140 |          140 |          143 |          142 |          142 |          143 |
sim_inst_rate                          471638.0000 |  471638.0000 |  471638.0000 |  471638.0000 |  471638.0000 |  471638.0000 |  471638.0000 | 1004453.0000 | 1004453.0000 | 1004453.0000 | 1004453.0000 | 1004453.0000 | 1004453.0000 | 1004453.0000 | 2152212.0000 | 2152212.0000 | 2152212.0000 | 2152212.0000 | 2152212.0000 | 2152212.0000 | 2152212.0000 | 4651906.0000 | 4651906.0000 | 4651906.0000 | 4651906.0000 | 4651906.0000 | 4651906.0000 | 4651906.0000 | 9794594.0000 | 9794594.0000 | 4897297.0000 | 9794594.0000 | 9794594.0000 | 9794594.0000 | 4897297.0000 | 6935587.0000 | 6935587.0000 |10403380.5000 | 6935587.0000 |10403380.5000 | 6935587.0000 | 6935587.0000 | 8756734.2000 | 8756734.2000 | 7297278.5000 | 8756734.2000 | 7297278.5000 | 8756734.2000 | 7297278.5000 | 8316792.5455 | 7623726.5000 | 8316792.5455 | 8316792.5455 | 7623726.5000 | 8316792.5455 | 7623726.5000 | 8109481.5833 | 8109481.5833 | 8109481.5833 | 8109481.5833 | 7785102.3200 | 8109481.5833 | 8109481.5833 | 7839017.2059 | 7839017.2059 | 7839017.2059 | 7725408.2609 | 7839017.2059 | 7725408.2609 | 7725408.2609 | 7867151.3000 | 7867151.3000 | 7867151.3000 | 7702106.1678 | 7756346.3521 | 7756346.3521 | 7702106.1678 |
sim_num_branches                             77444 |        77444 |        77444 |        77444 |        77444 |        77444 |        77444 |       166184 |       166184 |       166184 |       166184 |       166184 |       166184 |       166184 |       358702 |       358702 |       358702 |       358702 |       358702 |       358702 |       358702 |       778882 |       778882 |       778882 |       778882 |       778882 |       778882 |       778882 |      1646409 |      1646409 |      1646409 |      1646409 |      1646409 |      1646409 |      1646409 |      3512816 |      3512816 |      3512816 |      3512816 |      3512816 |      3512816 |      3512816 |      7423133 |      7423133 |      7423133 |      7423133 |      7423133 |      7423133 |      7423133 |     15553383 |     15553383 |     15553383 |     15553383 |     15553383 |     15553383 |     15553383 |     33195745 |     33195745 |     33195745 |     33195745 |     33195745 |     33195745 |     33195745 |     84884282 |     84884282 |     84884282 |     84884282 |     84884282 |     84884282 |     84884282 |    177297232 |    177297232 |    177297232 |    177297232 |    177297232 |    177297232 |    177297232 |
sim_IPB                                     6.0901 |       6.0901 |       6.0901 |       6.0901 |       6.0901 |       6.0901 |       6.0901 |       6.0442 |       6.0442 |       6.0442 |       6.0442 |       6.0442 |       6.0442 |       6.0442 |       6.0000 |       6.0000 |       6.0000 |       6.0000 |       6.0000 |       6.0000 |       6.0000 |       5.9725 |       5.9725 |       5.9725 |       5.9725 |       5.9725 |       5.9725 |       5.9725 |       5.9491 |       5.9491 |       5.9491 |       5.9491 |       5.9491 |       5.9491 |       5.9491 |       5.9231 |       5.9231 |       5.9231 |       5.9231 |       5.9231 |       5.9231 |       5.9231 |       5.8983 |       5.8983 |       5.8983 |       5.8983 |       5.8983 |       5.8983 |       5.8983 |       5.8820 |       5.8820 |       5.8820 |       5.8820 |       5.8820 |       5.8820 |       5.8820 |       5.8630 |       5.8630 |       5.8630 |       5.8630 |       5.8630 |       5.8630 |       5.8630 |       6.2798 |       6.2798 |       6.2798 |       6.2798 |       6.2798 |       6.2798 |       6.2798 |       6.2122 |       6.2122 |       6.2122 |       6.2122 |       6.2122 |       6.2122 |       6.2122 |
bpred_bimod.lookups                          77444 |        77444 |        77444 |xxxxxxxxxxxxx |xxxxxxxxxxxxx |xxxxxxxxxxxxx |xxxxxxxxxxxxx |       166184 |       166184 |       166184 |xxxxxxxxxxxxx |xxxxxxxxxxxxx |xxxxxxxxxxxxx |xxxxxxxxxxxxx |       358702 |       358702 |       358702 |xxxxxxxxxxxxx |xxxxxxxxxxxxx |xxxxxxxxxxxxx |xxxxxxxxxxxxx |       778882 |       778882 |       778882 |xxxxxxxxxxxxx |xxxxxxxxxxxxx |xxxxxxxxxxxxx |xxxxxxxxxxxxx |      1646409 |      1646409 |      1646409 |xxxxxxxxxxxxx |xxxxxxxxxxxxx |xxxxxxxxxxxxx |xxxxxxxxxxxxx |      3512816 |      3512816 |      3512816 |xxxxxxxxxxxxx |xxxxxxxxxxxxx |xxxxxxxxxxxxx |xxxxxxxxxxxxx |      7423133 |      7423133 |      7423133 |xxxxxxxxxxxxx |xxxxxxxxxxxxx |xxxxxxxxxxxxx |xxxxxxxxxxxxx |     15553383 |     15553383 |     15553383 |xxxxxxxxxxxxx |xxxxxxxxxxxxx |xxxxxxxxxxxxx |xxxxxxxxxxxxx |     33195745 |     33195745 |     33195745 |xxxxxxxxxxxxx |xxxxxxxxxxxxx |xxxxxxxxxxxxx |xxxxxxxxxxxxx |     84884282 |     84884282 |     84884282 |xxxxxxxxxxxxx |xxxxxxxxxxxxx |xxxxxxxxxxxxx |xxxxxxxxxxxxx |    177297232 |    177297232 |    177297232 |
bpred_bimod.updates                          77444 |        77444 |        77444 |xxxxxxxxxxxxx |xxxxxxxxxxxxx |xxxxxxxxxxxxx |xxxxxxxxxxxxx |       166184 |       166184 |       166184 |xxxxxxxxxxxxx |xxxxxxxxxxxxx |xxxxxxxxxxxxx |xxxxxxxxxxxxx |       358702 |       358702 |       358702 |xxxxxxxxxxxxx |xxxxxxxxxxxxx |xxxxxxxxxxxxx |xxxxxxxxxxxxx |       778882 |       778882 |       778882 |xxxxxxxxxxxxx |xxxxxxxxxxxxx |xxxxxxxxxxxxx |xxxxxxxxxxxxx |      1646409 |      1646409 |      1646409 |xxxxxxxxxxxxx |xxxxxxxxxxxxx |xxxxxxxxxxxxx |xxxxxxxxxxxxx |      3512816 |      3512816 |      3512816 |xxxxxxxxxxxxx |xxxxxxxxxxxxx |xxxxxxxxxxxxx |xxxxxxxxxxxxx |      7423133 |      7423133 |      7423133 |xxxxxxxxxxxxx |xxxxxxxxxxxxx |xxxxxxxxxxxxx |xxxxxxxxxxxxx |     15553383 |     15553383 |     15553383 |xxxxxxxxxxxxx |xxxxxxxxxxxxx |xxxxxxxxxxxxx |xxxxxxxxxxxxx |     33195745 |     33195745 |     33195745 |xxxxxxxxxxxxx |xxxxxxxxxxxxx |xxxxxxxxxxxxx |xxxxxxxxxxxxx |     84884282 |     84884282 |     84884282 |xxxxxxxxxxxxx |xxxxxxxxxxxxx |xxxxxxxxxxxxx |xxxxxxxxxxxxx |    177297232 |    177297232 |    177297232 |
bpred_bimod.addr_hits                        55846 |        55847 |        55849 |xxxxxxxxxxxxx |xxxxxxxxxxxxx |xxxxxxxxxxxxx |xxxxxxxxxxxxx |       119697 |       119695 |       119697 |xxxxxxxxxxxxx |xxxxxxxxxxxxx |xxxxxxxxxxxxx |xxxxxxxxxxxxx |       260820 |       260821 |       260822 |xxxxxxxxxxxxx |xxxxxxxxxxxxx |xxxxxxxxxxxxx |xxxxxxxxxxxxx |       569418 |       569418 |       569418 |xxxxxxxxxxxxx |xxxxxxxxxxxxx |xxxxxxxxxxxxx |xxxxxxxxxxxxx |      1191210 |      1191209 |      1191209 |xxxxxxxxxxxxx |xxxxxxxxxxxxx |xxxxxxxxxxxxx |xxxxxxxxxxxxx |      2563845 |      2563844 |      2563844 |xxxxxxxxxxxxx |xxxxxxxxxxxxx |xxxxxxxxxxxxx |xxxxxxxxxxxxx |      5380911 |      5380914 |      5380914 |xxxxxxxxxxxxx |xxxxxxxxxxxxx |xxxxxxxxxxxxx |xxxxxxxxxxxxx |     11172130 |     11172131 |     11172131 |xxxxxxxxxxxxx |xxxxxxxxxxxxx |xxxxxxxxxxxxx |xxxxxxxxxxxxx |     24239421 |     24239420 |     24239420 |xxxxxxxxxxxxx |xxxxxxxxxxxxx |xxxxxxxxxxxxx |xxxxxxxxxxxxx |     63514625 |     63514645 |     63514648 |xxxxxxxxxxxxx |xxxxxxxxxxxxx |xxxxxxxxxxxxx |xxxxxxxxxxxxx |    131403047 |    131403097 |    131403100 |
bpred_bimod.dir_hits                         55963 |        55962 |        55964 |xxxxxxxxxxxxx |xxxxxxxxxxxxx |xxxxxxxxxxxxx |xxxxxxxxxxxxx |       119810 |       119807 |       119808 |xxxxxxxxxxxxx |xxxxxxxxxxxxx |xxxxxxxxxxxxx |xxxxxxxxxxxxx |       260936 |       260935 |       260935 |xxxxxxxxxxxxx |xxxxxxxxxxxxx |xxxxxxxxxxxxx |xxxxxxxxxxxxx |       569535 |       569533 |       569533 |xxxxxxxxxxxxx |xxxxxxxxxxxxx |xxxxxxxxxxxxx |xxxxxxxxxxxxx |      1191322 |      1191319 |      1191319 |xxxxxxxxxxxxx |xxxxxxxxxxxxx |xxxxxxxxxxxxx |xxxxxxxxxxxxx |      2563961 |      2563958 |      2563958 |xxxxxxxxxxxxx |xxxxxxxxxxxxx |xxxxxxxxxxxxx |xxxxxxxxxxxxx |      5381027 |      5381028 |      5381028 |xxxxxxxxxxxxx |xxxxxxxxxxxxx |xxxxxxxxxxxxx |xxxxxxxxxxxxx |     11172245 |     11172244 |     11172244 |xxxxxxxxxxxxx |xxxxxxxxxxxxx |xxxxxxxxxxxxx |xxxxxxxxxxxxx |     24239539 |     24239536 |     24239536 |xxxxxxxxxxxxx |xxxxxxxxxxxxx |xxxxxxxxxxxxx |xxxxxxxxxxxxx |     63514791 |     63514811 |     63514815 |xxxxxxxxxxxxx |xxxxxxxxxxxxx |xxxxxxxxxxxxx |xxxxxxxxxxxxx |    131403209 |    131403258 |    131403262 |
bpred_bimod.misses                           21481 |        21482 |        21480 |xxxxxxxxxxxxx |xxxxxxxxxxxxx |xxxxxxxxxxxxx |xxxxxxxxxxxxx |        46374 |        46377 |        46376 |xxxxxxxxxxxxx |xxxxxxxxxxxxx |xxxxxxxxxxxxx |xxxxxxxxxxxxx |        97766 |        97767 |        97767 |xxxxxxxxxxxxx |xxxxxxxxxxxxx |xxxxxxxxxxxxx |xxxxxxxxxxxxx |       209347 |       209349 |       209349 |xxxxxxxxxxxxx |xxxxxxxxxxxxx |xxxxxxxxxxxxx |xxxxxxxxxxxxx |       455087 |       455090 |       455090 |xxxxxxxxxxxxx |xxxxxxxxxxxxx |xxxxxxxxxxxxx |xxxxxxxxxxxxx |       948855 |       948858 |       948858 |xxxxxxxxxxxxx |xxxxxxxxxxxxx |xxxxxxxxxxxxx |xxxxxxxxxxxxx |      2042106 |      2042105 |      2042105 |xxxxxxxxxxxxx |xxxxxxxxxxxxx |xxxxxxxxxxxxx |xxxxxxxxxxxxx |      4381138 |      4381139 |      4381139 |xxxxxxxxxxxxx |xxxxxxxxxxxxx |xxxxxxxxxxxxx |xxxxxxxxxxxxx |      8956206 |      8956209 |      8956209 |xxxxxxxxxxxxx |xxxxxxxxxxxxx |xxxxxxxxxxxxx |xxxxxxxxxxxxx |     21369491 |     21369471 |     21369467 |xxxxxxxxxxxxx |xxxxxxxxxxxxx |xxxxxxxxxxxxx |xxxxxxxxxxxxx |     45894023 |     45893974 |     45893970 |
bpred_bimod.jr_hits                             65 |           65 |           65 |xxxxxxxxxxxxx |xxxxxxxxxxxxx |xxxxxxxxxxxxx |xxxxxxxxxxxxx |           65 |           65 |           65 |xxxxxxxxxxxxx |xxxxxxxxxxxxx |xxxxxxxxxxxxx |xxxxxxxxxxxxx |           65 |           65 |           65 |xxxxxxxxxxxxx |xxxxxxxxxxxxx |xxxxxxxxxxxxx |xxxxxxxxxxxxx |           65 |           65 |           65 |xxxxxxxxxxxxx |xxxxxxxxxxxxx |xxxxxxxxxxxxx |xxxxxxxxxxxxx |           65 |           65 |           65 |xxxxxxxxxxxxx |xxxxxxxxxxxxx |xxxxxxxxxxxxx |xxxxxxxxxxxxx |           65 |           65 |           65 |xxxxxxxxxxxxx |xxxxxxxxxxxxx |xxxxxxxxxxxxx |xxxxxxxxxxxxx |           65 |           65 |           65 |xxxxxxxxxxxxx |xxxxxxxxxxxxx |xxxxxxxxxxxxx |xxxxxxxxxxxxx |           65 |           65 |           65 |xxxxxxxxxxxxx |xxxxxxxxxxxxx |xxxxxxxxxxxxx |xxxxxxxxxxxxx |           65 |           65 |           65 |xxxxxxxxxxxxx |xxxxxxxxxxxxx |xxxxxxxxxxxxx |xxxxxxxxxxxxx |          110 |          110 |          110 |xxxxxxxxxxxxx |xxxxxxxxxxxxx |xxxxxxxxxxxxx |xxxxxxxxxxxxx |          122 |          122 |          122 |
bpred_bimod.jr_seen                             65 |           65 |           65 |xxxxxxxxxxxxx |xxxxxxxxxxxxx |xxxxxxxxxxxxx |xxxxxxxxxxxxx |           65 |           65 |           65 |xxxxxxxxxxxxx |xxxxxxxxxxxxx |xxxxxxxxxxxxx |xxxxxxxxxxxxx |           65 |           65 |           65 |xxxxxxxxxxxxx |xxxxxxxxxxxxx |xxxxxxxxxxxxx |xxxxxxxxxxxxx |           65 |           65 |           65 |xxxxxxxxxxxxx |xxxxxxxxxxxxx |xxxxxxxxxxxxx |xxxxxxxxxxxxx |           65 |           65 |           65 |xxxxxxxxxxxxx |xxxxxxxxxxxxx |xxxxxxxxxxxxx |xxxxxxxxxxxxx |           65 |           65 |           65 |xxxxxxxxxxxxx |xxxxxxxxxxxxx |xxxxxxxxxxxxx |xxxxxxxxxxxxx |           65 |           65 |           65 |xxxxxxxxxxxxx |xxxxxxxxxxxxx |xxxxxxxxxxxxx |xxxxxxxxxxxxx |           65 |           65 |           65 |xxxxxxxxxxxxx |xxxxxxxxxxxxx |xxxxxxxxxxxxx |xxxxxxxxxxxxx |           65 |           65 |           65 |xxxxxxxxxxxxx |xxxxxxxxxxxxx |xxxxxxxxxxxxx |xxxxxxxxxxxxx |          111 |          111 |          111 |xxxxxxxxxxxxx |xxxxxxxxxxxxx |xxxxxxxxxxxxx |xxxxxxxxxxxxx |          123 |          123 |          123 |
bpred_bimod.jr_non_ras_hits.PP                   0 |            0 |            0 |xxxxxxxxxxxxx |xxxxxxxxxxxxx |xxxxxxxxxxxxx |xxxxxxxxxxxxx |            0 |            0 |            0 |xxxxxxxxxxxxx |xxxxxxxxxxxxx |xxxxxxxxxxxxx |xxxxxxxxxxxxx |            0 |            0 |            0 |xxxxxxxxxxxxx |xxxxxxxxxxxxx |xxxxxxxxxxxxx |xxxxxxxxxxxxx |            0 |            0 |            0 |xxxxxxxxxxxxx |xxxxxxxxxxxxx |xxxxxxxxxxxxx |xxxxxxxxxxxxx |            0 |            0 |            0 |xxxxxxxxxxxxx |xxxxxxxxxxxxx |xxxxxxxxxxxxx |xxxxxxxxxxxxx |            0 |            0 |            0 |xxxxxxxxxxxxx |xxxxxxxxxxxxx |xxxxxxxxxxxxx |xxxxxxxxxxxxx |            0 |            0 |            0 |xxxxxxxxxxxxx |xxxxxxxxxxxxx |xxxxxxxxxxxxx |xxxxxxxxxxxxx |            0 |            0 |            0 |xxxxxxxxxxxxx |xxxxxxxxxxxxx |xxxxxxxxxxxxx |xxxxxxxxxxxxx |            0 |            0 |            0 |xxxxxxxxxxxxx |xxxxxxxxxxxxx |xxxxxxxxxxxxx |xxxxxxxxxxxxx |            0 |            0 |            0 |xxxxxxxxxxxxx |xxxxxxxxxxxxx |xxxxxxxxxxxxx |xxxxxxxxxxxxx |            0 |            0 |            0 |
bpred_bimod.jr_non_ras_seen.PP                   0 |            0 |            0 |xxxxxxxxxxxxx |xxxxxxxxxxxxx |xxxxxxxxxxxxx |xxxxxxxxxxxxx |            0 |            0 |            0 |xxxxxxxxxxxxx |xxxxxxxxxxxxx |xxxxxxxxxxxxx |xxxxxxxxxxxxx |            0 |            0 |            0 |xxxxxxxxxxxxx |xxxxxxxxxxxxx |xxxxxxxxxxxxx |xxxxxxxxxxxxx |            0 |            0 |            0 |xxxxxxxxxxxxx |xxxxxxxxxxxxx |xxxxxxxxxxxxx |xxxxxxxxxxxxx |            0 |            0 |            0 |xxxxxxxxxxxxx |xxxxxxxxxxxxx |xxxxxxxxxxxxx |xxxxxxxxxxxxx |            0 |            0 |            0 |xxxxxxxxxxxxx |xxxxxxxxxxxxx |xxxxxxxxxxxxx |xxxxxxxxxxxxx |            0 |            0 |            0 |xxxxxxxxxxxxx |xxxxxxxxxxxxx |xxxxxxxxxxxxx |xxxxxxxxxxxxx |            0 |            0 |            0 |xxxxxxxxxxxxx |xxxxxxxxxxxxx |xxxxxxxxxxxxx |xxxxxxxxxxxxx |            0 |            0 |            0 |xxxxxxxxxxxxx |xxxxxxxxxxxxx |xxxxxxxxxxxxx |xxxxxxxxxxxxx |            1 |            1 |            1 |xxxxxxxxxxxxx |xxxxxxxxxxxxx |xxxxxxxxxxxxx |xxxxxxxxxxxxx |            1 |            1 |            1 |
bpred_bimod.bpred_addr_rate                 0.7211 |       0.7211 |       0.7212 |xxxxxxxxxxxxx |xxxxxxxxxxxxx |xxxxxxxxxxxxx |xxxxxxxxxxxxx |       0.7203 |       0.7203 |       0.7203 |xxxxxxxxxxxxx |xxxxxxxxxxxxx |xxxxxxxxxxxxx |xxxxxxxxxxxxx |       0.7271 |       0.7271 |       0.7271 |xxxxxxxxxxxxx |xxxxxxxxxxxxx |xxxxxxxxxxxxx |xxxxxxxxxxxxx |       0.7311 |       0.7311 |       0.7311 |xxxxxxxxxxxxx |xxxxxxxxxxxxx |xxxxxxxxxxxxx |xxxxxxxxxxxxx |       0.7235 |       0.7235 |       0.7235 |xxxxxxxxxxxxx |xxxxxxxxxxxxx |xxxxxxxxxxxxx |xxxxxxxxxxxxx |       0.7299 |       0.7299 |       0.7299 |xxxxxxxxxxxxx |xxxxxxxxxxxxx |xxxxxxxxxxxxx |xxxxxxxxxxxxx |       0.7249 |       0.7249 |       0.7249 |xxxxxxxxxxxxx |xxxxxxxxxxxxx |xxxxxxxxxxxxx |xxxxxxxxxxxxx |       0.7183 |       0.7183 |       0.7183 |xxxxxxxxxxxxx |xxxxxxxxxxxxx |xxxxxxxxxxxxx |xxxxxxxxxxxxx |       0.7302 |       0.7302 |       0.7302 |xxxxxxxxxxxxx |xxxxxxxxxxxxx |xxxxxxxxxxxxx |xxxxxxxxxxxxx |       0.7482 |       0.7482 |       0.7482 |xxxxxxxxxxxxx |xxxxxxxxxxxxx |xxxxxxxxxxxxx |xxxxxxxxxxxxx |       0.7411 |       0.7411 |       0.7411 |
bpred_bimod.bpred_dir_rate                  0.7226 |       0.7226 |       0.7226 |xxxxxxxxxxxxx |xxxxxxxxxxxxx |xxxxxxxxxxxxx |xxxxxxxxxxxxx |       0.7209 |       0.7209 |       0.7209 |xxxxxxxxxxxxx |xxxxxxxxxxxxx |xxxxxxxxxxxxx |xxxxxxxxxxxxx |       0.7274 |       0.7274 |       0.7274 |xxxxxxxxxxxxx |xxxxxxxxxxxxx |xxxxxxxxxxxxx |xxxxxxxxxxxxx |       0.7312 |       0.7312 |       0.7312 |xxxxxxxxxxxxx |xxxxxxxxxxxxx |xxxxxxxxxxxxx |xxxxxxxxxxxxx |       0.7236 |       0.7236 |       0.7236 |xxxxxxxxxxxxx |xxxxxxxxxxxxx |xxxxxxxxxxxxx |xxxxxxxxxxxxx |       0.7299 |       0.7299 |       0.7299 |xxxxxxxxxxxxx |xxxxxxxxxxxxx |xxxxxxxxxxxxx |xxxxxxxxxxxxx |       0.7249 |       0.7249 |       0.7249 |xxxxxxxxxxxxx |xxxxxxxxxxxxx |xxxxxxxxxxxxx |xxxxxxxxxxxxx |       0.7183 |       0.7183 |       0.7183 |xxxxxxxxxxxxx |xxxxxxxxxxxxx |xxxxxxxxxxxxx |xxxxxxxxxxxxx |       0.7302 |       0.7302 |       0.7302 |xxxxxxxxxxxxx |xxxxxxxxxxxxx |xxxxxxxxxxxxx |xxxxxxxxxxxxx |       0.7483 |       0.7483 |       0.7483 |xxxxxxxxxxxxx |xxxxxxxxxxxxx |xxxxxxxxxxxxx |xxxxxxxxxxxxx |       0.7411 |       0.7411 |       0.7411 |
bpred_bimod.bpred_jr_rate                   1.0000 |       1.0000 |       1.0000 |xxxxxxxxxxxxx |xxxxxxxxxxxxx |xxxxxxxxxxxxx |xxxxxxxxxxxxx |       1.0000 |       1.0000 |       1.0000 |xxxxxxxxxxxxx |xxxxxxxxxxxxx |xxxxxxxxxxxxx |xxxxxxxxxxxxx |       1.0000 |       1.0000 |       1.0000 |xxxxxxxxxxxxx |xxxxxxxxxxxxx |xxxxxxxxxxxxx |xxxxxxxxxxxxx |       1.0000 |       1.0000 |       1.0000 |xxxxxxxxxxxxx |xxxxxxxxxxxxx |xxxxxxxxxxxxx |xxxxxxxxxxxxx |       1.0000 |       1.0000 |       1.0000 |xxxxxxxxxxxxx |xxxxxxxxxxxxx |xxxxxxxxxxxxx |xxxxxxxxxxxxx |       1.0000 |       1.0000 |       1.0000 |xxxxxxxxxxxxx |xxxxxxxxxxxxx |xxxxxxxxxxxxx |xxxxxxxxxxxxx |       1.0000 |       1.0000 |       1.0000 |xxxxxxxxxxxxx |xxxxxxxxxxxxx |xxxxxxxxxxxxx |xxxxxxxxxxxxx |       1.0000 |       1.0000 |       1.0000 |xxxxxxxxxxxxx |xxxxxxxxxxxxx |xxxxxxxxxxxxx |xxxxxxxxxxxxx |       1.0000 |       1.0000 |       1.0000 |xxxxxxxxxxxxx |xxxxxxxxxxxxx |xxxxxxxxxxxxx |xxxxxxxxxxxxx |       0.9910 |       0.9910 |       0.9910 |xxxxxxxxxxxxx |xxxxxxxxxxxxx |xxxxxxxxxxxxx |xxxxxxxxxxxxx |       0.9919 |       0.9919 |       0.9919 |
bpred_bimod.bpred_jr_non_ras_rate.PP       <error: |      <error: |      <error: |xxxxxxxxxxxxx |xxxxxxxxxxxxx |xxxxxxxxxxxxx |xxxxxxxxxxxxx |      <error: |      <error: |      <error: |xxxxxxxxxxxxx |xxxxxxxxxxxxx |xxxxxxxxxxxxx |xxxxxxxxxxxxx |      <error: |      <error: |      <error: |xxxxxxxxxxxxx |xxxxxxxxxxxxx |xxxxxxxxxxxxx |xxxxxxxxxxxxx |      <error: |      <error: |      <error: |xxxxxxxxxxxxx |xxxxxxxxxxxxx |xxxxxxxxxxxxx |xxxxxxxxxxxxx |      <error: |      <error: |      <error: |xxxxxxxxxxxxx |xxxxxxxxxxxxx |xxxxxxxxxxxxx |xxxxxxxxxxxxx |      <error: |      <error: |      <error: |xxxxxxxxxxxxx |xxxxxxxxxxxxx |xxxxxxxxxxxxx |xxxxxxxxxxxxx |      <error: |      <error: |      <error: |xxxxxxxxxxxxx |xxxxxxxxxxxxx |xxxxxxxxxxxxx |xxxxxxxxxxxxx |      <error: |      <error: |      <error: |xxxxxxxxxxxxx |xxxxxxxxxxxxx |xxxxxxxxxxxxx |xxxxxxxxxxxxx |      <error: |      <error: |      <error: |xxxxxxxxxxxxx |xxxxxxxxxxxxx |xxxxxxxxxxxxx |xxxxxxxxxxxxx |       0.0000 |       0.0000 |       0.0000 |xxxxxxxxxxxxx |xxxxxxxxxxxxx |xxxxxxxxxxxxx |xxxxxxxxxxxxx |       0.0000 |       0.0000 |       0.0000 |
bpred_bimod.retstack_pushes                     67 |           67 |           67 |xxxxxxxxxxxxx |xxxxxxxxxxxxx |xxxxxxxxxxxxx |xxxxxxxxxxxxx |           67 |           67 |           67 |xxxxxxxxxxxxx |xxxxxxxxxxxxx |xxxxxxxxxxxxx |xxxxxxxxxxxxx |           67 |           67 |           67 |xxxxxxxxxxxxx |xxxxxxxxxxxxx |xxxxxxxxxxxxx |xxxxxxxxxxxxx |           67 |           67 |           67 |xxxxxxxxxxxxx |xxxxxxxxxxxxx |xxxxxxxxxxxxx |xxxxxxxxxxxxx |           67 |           67 |           67 |xxxxxxxxxxxxx |xxxxxxxxxxxxx |xxxxxxxxxxxxx |xxxxxxxxxxxxx |           67 |           67 |           67 |xxxxxxxxxxxxx |xxxxxxxxxxxxx |xxxxxxxxxxxxx |xxxxxxxxxxxxx |           67 |           67 |           67 |xxxxxxxxxxxxx |xxxxxxxxxxxxx |xxxxxxxxxxxxx |xxxxxxxxxxxxx |           67 |           67 |           67 |xxxxxxxxxxxxx |xxxxxxxxxxxxx |xxxxxxxxxxxxx |xxxxxxxxxxxxx |           67 |           67 |           67 |xxxxxxxxxxxxx |xxxxxxxxxxxxx |xxxxxxxxxxxxx |xxxxxxxxxxxxx |          112 |          112 |          112 |xxxxxxxxxxxxx |xxxxxxxxxxxxx |xxxxxxxxxxxxx |xxxxxxxxxxxxx |          124 |          124 |          124 |
bpred_bimod.retstack_pops                       65 |           65 |           65 |xxxxxxxxxxxxx |xxxxxxxxxxxxx |xxxxxxxxxxxxx |xxxxxxxxxxxxx |           65 |           65 |           65 |xxxxxxxxxxxxx |xxxxxxxxxxxxx |xxxxxxxxxxxxx |xxxxxxxxxxxxx |           65 |           65 |           65 |xxxxxxxxxxxxx |xxxxxxxxxxxxx |xxxxxxxxxxxxx |xxxxxxxxxxxxx |           65 |           65 |           65 |xxxxxxxxxxxxx |xxxxxxxxxxxxx |xxxxxxxxxxxxx |xxxxxxxxxxxxx |           65 |           65 |           65 |xxxxxxxxxxxxx |xxxxxxxxxxxxx |xxxxxxxxxxxxx |xxxxxxxxxxxxx |           65 |           65 |           65 |xxxxxxxxxxxxx |xxxxxxxxxxxxx |xxxxxxxxxxxxx |xxxxxxxxxxxxx |           65 |           65 |           65 |xxxxxxxxxxxxx |xxxxxxxxxxxxx |xxxxxxxxxxxxx |xxxxxxxxxxxxx |           65 |           65 |           65 |xxxxxxxxxxxxx |xxxxxxxxxxxxx |xxxxxxxxxxxxx |xxxxxxxxxxxxx |           65 |           65 |           65 |xxxxxxxxxxxxx |xxxxxxxxxxxxx |xxxxxxxxxxxxx |xxxxxxxxxxxxx |          110 |          110 |          110 |xxxxxxxxxxxxx |xxxxxxxxxxxxx |xxxxxxxxxxxxx |xxxxxxxxxxxxx |          122 |          122 |          122 |
bpred_bimod.used_ras.PP                         65 |           65 |           65 |xxxxxxxxxxxxx |xxxxxxxxxxxxx |xxxxxxxxxxxxx |xxxxxxxxxxxxx |           65 |           65 |           65 |xxxxxxxxxxxxx |xxxxxxxxxxxxx |xxxxxxxxxxxxx |xxxxxxxxxxxxx |           65 |           65 |           65 |xxxxxxxxxxxxx |xxxxxxxxxxxxx |xxxxxxxxxxxxx |xxxxxxxxxxxxx |           65 |           65 |           65 |xxxxxxxxxxxxx |xxxxxxxxxxxxx |xxxxxxxxxxxxx |xxxxxxxxxxxxx |           65 |           65 |           65 |xxxxxxxxxxxxx |xxxxxxxxxxxxx |xxxxxxxxxxxxx |xxxxxxxxxxxxx |           65 |           65 |           65 |xxxxxxxxxxxxx |xxxxxxxxxxxxx |xxxxxxxxxxxxx |xxxxxxxxxxxxx |           65 |           65 |           65 |xxxxxxxxxxxxx |xxxxxxxxxxxxx |xxxxxxxxxxxxx |xxxxxxxxxxxxx |           65 |           65 |           65 |xxxxxxxxxxxxx |xxxxxxxxxxxxx |xxxxxxxxxxxxx |xxxxxxxxxxxxx |           65 |           65 |           65 |xxxxxxxxxxxxx |xxxxxxxxxxxxx |xxxxxxxxxxxxx |xxxxxxxxxxxxx |          110 |          110 |          110 |xxxxxxxxxxxxx |xxxxxxxxxxxxx |xxxxxxxxxxxxx |xxxxxxxxxxxxx |          122 |          122 |          122 |
bpred_bimod.ras_hits.PP                         65 |           65 |           65 |xxxxxxxxxxxxx |xxxxxxxxxxxxx |xxxxxxxxxxxxx |xxxxxxxxxxxxx |           65 |           65 |           65 |xxxxxxxxxxxxx |xxxxxxxxxxxxx |xxxxxxxxxxxxx |xxxxxxxxxxxxx |           65 |           65 |           65 |xxxxxxxxxxxxx |xxxxxxxxxxxxx |xxxxxxxxxxxxx |xxxxxxxxxxxxx |           65 |           65 |           65 |xxxxxxxxxxxxx |xxxxxxxxxxxxx |xxxxxxxxxxxxx |xxxxxxxxxxxxx |           65 |           65 |           65 |xxxxxxxxxxxxx |xxxxxxxxxxxxx |xxxxxxxxxxxxx |xxxxxxxxxxxxx |           65 |           65 |           65 |xxxxxxxxxxxxx |xxxxxxxxxxxxx |xxxxxxxxxxxxx |xxxxxxxxxxxxx |           65 |           65 |           65 |xxxxxxxxxxxxx |xxxxxxxxxxxxx |xxxxxxxxxxxxx |xxxxxxxxxxxxx |           65 |           65 |           65 |xxxxxxxxxxxxx |xxxxxxxxxxxxx |xxxxxxxxxxxxx |xxxxxxxxxxxxx |           65 |           65 |           65 |xxxxxxxxxxxxx |xxxxxxxxxxxxx |xxxxxxxxxxxxx |xxxxxxxxxxxxx |          110 |          110 |          110 |xxxxxxxxxxxxx |xxxxxxxxxxxxx |xxxxxxxxxxxxx |xxxxxxxxxxxxx |          122 |          122 |          122 |
bpred_bimod.ras_rate.PP                     1.0000 |       1.0000 |       1.0000 |xxxxxxxxxxxxx |xxxxxxxxxxxxx |xxxxxxxxxxxxx |xxxxxxxxxxxxx |       1.0000 |       1.0000 |       1.0000 |xxxxxxxxxxxxx |xxxxxxxxxxxxx |xxxxxxxxxxxxx |xxxxxxxxxxxxx |       1.0000 |       1.0000 |       1.0000 |xxxxxxxxxxxxx |xxxxxxxxxxxxx |xxxxxxxxxxxxx |xxxxxxxxxxxxx |       1.0000 |       1.0000 |       1.0000 |xxxxxxxxxxxxx |xxxxxxxxxxxxx |xxxxxxxxxxxxx |xxxxxxxxxxxxx |       1.0000 |       1.0000 |       1.0000 |xxxxxxxxxxxxx |xxxxxxxxxxxxx |xxxxxxxxxxxxx |xxxxxxxxxxxxx |       1.0000 |       1.0000 |       1.0000 |xxxxxxxxxxxxx |xxxxxxxxxxxxx |xxxxxxxxxxxxx |xxxxxxxxxxxxx |       1.0000 |       1.0000 |       1.0000 |xxxxxxxxxxxxx |xxxxxxxxxxxxx |xxxxxxxxxxxxx |xxxxxxxxxxxxx |       1.0000 |       1.0000 |       1.0000 |xxxxxxxxxxxxx |xxxxxxxxxxxxx |xxxxxxxxxxxxx |xxxxxxxxxxxxx |       1.0000 |       1.0000 |       1.0000 |xxxxxxxxxxxxx |xxxxxxxxxxxxx |xxxxxxxxxxxxx |xxxxxxxxxxxxx |       1.0000 |       1.0000 |       1.0000 |xxxxxxxxxxxxx |xxxxxxxxxxxxx |xxxxxxxxxxxxx |xxxxxxxxxxxxx |       1.0000 |       1.0000 |       1.0000 |
bpred_2lev.lookups                   xxxxxxxxxxxxx |xxxxxxxxxxxxx |xxxxxxxxxxxxx |        77444 |        77444 |        77444 |        77444 |xxxxxxxxxxxxx |xxxxxxxxxxxxx |xxxxxxxxxxxxx |       166184 |       166184 |       166184 |       166184 |xxxxxxxxxxxxx |xxxxxxxxxxxxx |xxxxxxxxxxxxx |       358702 |       358702 |       358702 |       358702 |xxxxxxxxxxxxx |xxxxxxxxxxxxx |xxxxxxxxxxxxx |       778882 |       778882 |       778882 |       778882 |xxxxxxxxxxxxx |xxxxxxxxxxxxx |xxxxxxxxxxxxx |      1646409 |      1646409 |      1646409 |      1646409 |xxxxxxxxxxxxx |xxxxxxxxxxxxx |xxxxxxxxxxxxx |      3512816 |      3512816 |      3512816 |      3512816 |xxxxxxxxxxxxx |xxxxxxxxxxxxx |xxxxxxxxxxxxx |      7423133 |      7423133 |      7423133 |      7423133 |xxxxxxxxxxxxx |xxxxxxxxxxxxx |xxxxxxxxxxxxx |     15553383 |     15553383 |     15553383 |     15553383 |xxxxxxxxxxxxx |xxxxxxxxxxxxx |xxxxxxxxxxxxx |     33195745 |     33195745 |     33195745 |     33195745 |xxxxxxxxxxxxx |xxxxxxxxxxxxx |xxxxxxxxxxxxx |     84884282 |     84884282 |     84884282 |     84884282 |xxxxxxxxxxxxx |xxxxxxxxxxxxx |xxxxxxxxxxxxx |    177297232 |    177297232 |    177297232 |    177297232 |
[...]
bpred_2lev.retstack_pushes           xxxxxxxxxxxxx |xxxxxxxxxxxxx |xxxxxxxxxxxxx |           67 |           67 |           67 |           67 |xxxxxxxxxxxxx |xxxxxxxxxxxxx |xxxxxxxxxxxxx |           67 |           67 |           67 |           67 |xxxxxxxxxxxxx |xxxxxxxxxxxxx |xxxxxxxxxxxxx |           67 |           67 |           67 |           67 |xxxxxxxxxxxxx |xxxxxxxxxxxxx |xxxxxxxxxxxxx |           67 |           67 |           67 |           67 |xxxxxxxxxxxxx |xxxxxxxxxxxxx |xxxxxxxxxxxxx |           67 |           67 |           67 |           67 |xxxxxxxxxxxxx |xxxxxxxxxxxxx |xxxxxxxxxxxxx |           67 |           67 |           67 |           67 |xxxxxxxxxxxxx |xxxxxxxxxxxxx |xxxxxxxxxxxxx |           67 |           67 |           67 |           67 |xxxxxxxxxxxxx |xxxxxxxxxxxxx |xxxxxxxxxxxxx |           67 |           67 |           67 |           67 |xxxxxxxxxxxxx |xxxxxxxxxxxxx |xxxxxxxxxxxxx |           67 |           67 |           67 |           67 |xxxxxxxxxxxxx |xxxxxxxxxxxxx |xxxxxxxxxxxxx |          112 |          112 |          112 |          112 |xxxxxxxxxxxxx |xxxxxxxxxxxxx |xxxxxxxxxxxxx |          124 |          124 |          124 |          124 |
bpred_2lev.retstack_pops             xxxxxxxxxxxxx |xxxxxxxxxxxxx |xxxxxxxxxxxxx |           65 |           65 |           65 |           65 |xxxxxxxxxxxxx |xxxxxxxxxxxxx |xxxxxxxxxxxxx |           65 |           65 |           65 |           65 |xxxxxxxxxxxxx |xxxxxxxxxxxxx |xxxxxxxxxxxxx |           65 |           65 |           65 |           65 |xxxxxxxxxxxxx |xxxxxxxxxxxxx |xxxxxxxxxxxxx |           65 |           65 |           65 |           65 |xxxxxxxxxxxxx |xxxxxxxxxxxxx |xxxxxxxxxxxxx |           65 |           65 |           65 |           65 |xxxxxxxxxxxxx |xxxxxxxxxxxxx |xxxxxxxxxxxxx |           65 |           65 |           65 |           65 |xxxxxxxxxxxxx |xxxxxxxxxxxxx |xxxxxxxxxxxxx |           65 |           65 |           65 |           65 |xxxxxxxxxxxxx |xxxxxxxxxxxxx |xxxxxxxxxxxxx |           65 |           65 |           65 |           65 |xxxxxxxxxxxxx |xxxxxxxxxxxxx |xxxxxxxxxxxxx |           65 |           65 |           65 |           65 |xxxxxxxxxxxxx |xxxxxxxxxxxxx |xxxxxxxxxxxxx |          110 |          110 |          110 |          110 |xxxxxxxxxxxxx |xxxxxxxxxxxxx |xxxxxxxxxxxxx |          122 |          122 |          122 |          122 |
bpred_2lev.used_ras.PP               xxxxxxxxxxxxx |xxxxxxxxxxxxx |xxxxxxxxxxxxx |           65 |           65 |           65 |           65 |xxxxxxxxxxxxx |xxxxxxxxxxxxx |xxxxxxxxxxxxx |           65 |           65 |           65 |           65 |xxxxxxxxxxxxx |xxxxxxxxxxxxx |xxxxxxxxxxxxx |           65 |           65 |           65 |           65 |xxxxxxxxxxxxx |xxxxxxxxxxxxx |xxxxxxxxxxxxx |           65 |           65 |           65 |           65 |xxxxxxxxxxxxx |xxxxxxxxxxxxx |xxxxxxxxxxxxx |           65 |           65 |           65 |           65 |xxxxxxxxxxxxx |xxxxxxxxxxxxx |xxxxxxxxxxxxx |           65 |           65 |           65 |           65 |xxxxxxxxxxxxx |xxxxxxxxxxxxx |xxxxxxxxxxxxx |           65 |           65 |           65 |           65 |xxxxxxxxxxxxx |xxxxxxxxxxxxx |xxxxxxxxxxxxx |           65 |           65 |           65 |           65 |xxxxxxxxxxxxx |xxxxxxxxxxxxx |xxxxxxxxxxxxx |           65 |           65 |           65 |           65 |xxxxxxxxxxxxx |xxxxxxxxxxxxx |xxxxxxxxxxxxx |          110 |          110 |          110 |          110 |xxxxxxxxxxxxx |xxxxxxxxxxxxx |xxxxxxxxxxxxx |          122 |          122 |          122 |          122 |
bpred_2lev.ras_hits.PP               xxxxxxxxxxxxx |xxxxxxxxxxxxx |xxxxxxxxxxxxx |           65 |           65 |           65 |           65 |xxxxxxxxxxxxx |xxxxxxxxxxxxx |xxxxxxxxxxxxx |           65 |           65 |           65 |           65 |xxxxxxxxxxxxx |xxxxxxxxxxxxx |xxxxxxxxxxxxx |           65 |           65 |           65 |           65 |xxxxxxxxxxxxx |xxxxxxxxxxxxx |xxxxxxxxxxxxx |           65 |           65 |           65 |           65 |xxxxxxxxxxxxx |xxxxxxxxxxxxx |xxxxxxxxxxxxx |           65 |           65 |           65 |           65 |xxxxxxxxxxxxx |xxxxxxxxxxxxx |xxxxxxxxxxxxx |           65 |           65 |           65 |           65 |xxxxxxxxxxxxx |xxxxxxxxxxxxx |xxxxxxxxxxxxx |           65 |           65 |           65 |           65 |xxxxxxxxxxxxx |xxxxxxxxxxxxx |xxxxxxxxxxxxx |           65 |           65 |           65 |           65 |xxxxxxxxxxxxx |xxxxxxxxxxxxx |xxxxxxxxxxxxx |           65 |           65 |           65 |           65 |xxxxxxxxxxxxx |xxxxxxxxxxxxx |xxxxxxxxxxxxx |          110 |          110 |          110 |          110 |xxxxxxxxxxxxx |xxxxxxxxxxxxx |xxxxxxxxxxxxx |          122 |          122 |          122 |          122 |
bpred_2lev.ras_rate.PP               xxxxxxxxxxxxx |xxxxxxxxxxxxx |xxxxxxxxxxxxx |       1.0000 |       1.0000 |       1.0000 |       1.0000 |xxxxxxxxxxxxx |xxxxxxxxxxxxx |xxxxxxxxxxxxx |       1.0000 |       1.0000 |       1.0000 |       1.0000 |xxxxxxxxxxxxx |xxxxxxxxxxxxx |xxxxxxxxxxxxx |       1.0000 |       1.0000 |       1.0000 |       1.0000 |xxxxxxxxxxxxx |xxxxxxxxxxxxx |xxxxxxxxxxxxx |       1.0000 |       1.0000 |       1.0000 |       1.0000 |xxxxxxxxxxxxx |xxxxxxxxxxxxx |xxxxxxxxxxxxx |       1.0000 |       1.0000 |       1.0000 |       1.0000 |xxxxxxxxxxxxx |xxxxxxxxxxxxx |xxxxxxxxxxxxx |       1.0000 |       1.0000 |       1.0000 |       1.0000 |xxxxxxxxxxxxx |xxxxxxxxxxxxx |xxxxxxxxxxxxx |       1.0000 |       1.0000 |       1.0000 |       1.0000 |xxxxxxxxxxxxx |xxxxxxxxxxxxx |xxxxxxxxxxxxx |       1.0000 |       1.0000 |       1.0000 |       1.0000 |xxxxxxxxxxxxx |xxxxxxxxxxxxx |xxxxxxxxxxxxx |       1.0000 |       1.0000 |       1.0000 |       1.0000 |xxxxxxxxxxxxx |xxxxxxxxxxxxx |xxxxxxxxxxxxx |       1.0000 |       1.0000 |       1.0000 |       1.0000 |xxxxxxxxxxxxx |xxxxxxxxxxxxx |xxxxxxxxxxxxx |       1.0000 |       1.0000 |       1.0000 |       1.0000 |

Command list: 
	sslittle-na-sstrix-gcc -Wall -O3 -funroll-loops -finline-functions  -DRANDOM_SIZE=4096 -DOFFSET=5 -DSORT=multi_quicksort sorts/multi_quicksort443498241.c simpleMain.c -o multi_quicksort346825559
	sim-cache -cache:dl1 dl1:256:32:1:l -cache:dl2 dl2:131072:32:1:l -cache:il1 il1:256:32:1:l -cache:il2 dl2 multi_quicksort346825559
	sim-cache -cache:dl1 dl1:256:32:1:l -cache:dl2 dl2:65536:32:1:l -cache:il1 il1:256:32:1:l -cache:il2 dl2 multi_quicksort346825559
	sim-cache -cache:dl1 dl1:1:32:256:l -cache:dl2 dl2:1:32:131072:l -cache:il1 il1:1:32:256:l -cache:il2 dl2 multi_quicksort346825559
	sim-cache -cache:dl1 dl1:1:32:256:l -cache:dl2 dl2:1:32:65536:l -cache:il1 il1:1:32:256:l -cache:il2 dl2 multi_quicksort346825559
	sim-bpred -bpred bimod -bpred:bimod 512 multi_quicksort346825559
	sim-bpred -bpred bimod -bpred:bimod 1024 multi_quicksort346825559
	sim-bpred -bpred bimod -bpred:bimod 2048 multi_quicksort346825559
	sim-bpred -bpred 2lev -bpred:2lev 1 512 10 1 multi_quicksort346825559
	sim-bpred -bpred 2lev -bpred:2lev 1 1024 10 1 multi_quicksort346825559
	sim-bpred -bpred 2lev -bpred:2lev 1 2048 10 1 multi_quicksort346825559
	sim-bpred -bpred 2lev -bpred:2lev 1 4096 10 1 multi_quicksort346825559
	sslittle-na-sstrix-gcc -Wall -O3 -funroll-loops -finline-functions  -DRANDOM_SIZE=8192 -DOFFSET=5 -DSORT=multi_quicksort sorts/multi_quicksort443498241.c simpleMain.c -o multi_quicksort346825559
	sim-cache -cache:dl1 dl1:256:32:1:l -cache:dl2 dl2:131072:32:1:l -cache:il1 il1:256:32:1:l -cache:il2 dl2 multi_quicksort346825559
	sim-cache -cache:dl1 dl1:256:32:1:l -cache:dl2 dl2:65536:32:1:l -cache:il1 il1:256:32:1:l -cache:il2 dl2 multi_quicksort346825559
	sim-cache -cache:dl1 dl1:1:32:256:l -cache:dl2 dl2:1:32:131072:l -cache:il1 il1:1:32:256:l -cache:il2 dl2 multi_quicksort346825559
	sim-cache -cache:dl1 dl1:1:32:256:l -cache:dl2 dl2:1:32:65536:l -cache:il1 il1:1:32:256:l -cache:il2 dl2 multi_quicksort346825559
	sim-bpred -bpred bimod -bpred:bimod 512 multi_quicksort346825559
	sim-bpred -bpred bimod -bpred:bimod 1024 multi_quicksort346825559
	sim-bpred -bpred bimod -bpred:bimod 2048 multi_quicksort346825559
	sim-bpred -bpred 2lev -bpred:2lev 1 512 10 1 multi_quicksort346825559
	sim-bpred -bpred 2lev -bpred:2lev 1 1024 10 1 multi_quicksort346825559
	sim-bpred -bpred 2lev -bpred:2lev 1 2048 10 1 multi_quicksort346825559
	sim-bpred -bpred 2lev -bpred:2lev 1 4096 10 1 multi_quicksort346825559
	sslittle-na-sstrix-gcc -Wall -O3 -funroll-loops -finline-functions  -DRANDOM_SIZE=16384 -DOFFSET=5 -DSORT=multi_quicksort sorts/multi_quicksort443498241.c simpleMain.c -o multi_quicksort346825559
	sim-cache -cache:dl1 dl1:256:32:1:l -cache:dl2 dl2:131072:32:1:l -cache:il1 il1:256:32:1:l -cache:il2 dl2 multi_quicksort346825559
	sim-cache -cache:dl1 dl1:256:32:1:l -cache:dl2 dl2:65536:32:1:l -cache:il1 il1:256:32:1:l -cache:il2 dl2 multi_quicksort346825559
	sim-cache -cache:dl1 dl1:1:32:256:l -cache:dl2 dl2:1:32:131072:l -cache:il1 il1:1:32:256:l -cache:il2 dl2 multi_quicksort346825559
	sim-cache -cache:dl1 dl1:1:32:256:l -cache:dl2 dl2:1:32:65536:l -cache:il1 il1:1:32:256:l -cache:il2 dl2 multi_quicksort346825559
	sim-bpred -bpred bimod -bpred:bimod 512 multi_quicksort346825559
	sim-bpred -bpred bimod -bpred:bimod 1024 multi_quicksort346825559
	sim-bpred -bpred bimod -bpred:bimod 2048 multi_quicksort346825559
	sim-bpred -bpred 2lev -bpred:2lev 1 512 10 1 multi_quicksort346825559
	sim-bpred -bpred 2lev -bpred:2lev 1 1024 10 1 multi_quicksort346825559
	sim-bpred -bpred 2lev -bpred:2lev 1 2048 10 1 multi_quicksort346825559
	sim-bpred -bpred 2lev -bpred:2lev 1 4096 10 1 multi_quicksort346825559
	sslittle-na-sstrix-gcc -Wall -O3 -funroll-loops -finline-functions  -DRANDOM_SIZE=32768 -DOFFSET=5 -DSORT=multi_quicksort sorts/multi_quicksort443498241.c simpleMain.c -o multi_quicksort346825559
	sim-cache -cache:dl1 dl1:256:32:1:l -cache:dl2 dl2:131072:32:1:l -cache:il1 il1:256:32:1:l -cache:il2 dl2 multi_quicksort346825559
	sim-cache -cache:dl1 dl1:256:32:1:l -cache:dl2 dl2:65536:32:1:l -cache:il1 il1:256:32:1:l -cache:il2 dl2 multi_quicksort346825559
	sim-cache -cache:dl1 dl1:1:32:256:l -cache:dl2 dl2:1:32:131072:l -cache:il1 il1:1:32:256:l -cache:il2 dl2 multi_quicksort346825559
	sim-cache -cache:dl1 dl1:1:32:256:l -cache:dl2 dl2:1:32:65536:l -cache:il1 il1:1:32:256:l -cache:il2 dl2 multi_quicksort346825559
	sim-bpred -bpred bimod -bpred:bimod 512 multi_quicksort346825559
	sim-bpred -bpred bimod -bpred:bimod 1024 multi_quicksort346825559
	sim-bpred -bpred bimod -bpred:bimod 2048 multi_quicksort346825559
	sim-bpred -bpred 2lev -bpred:2lev 1 512 10 1 multi_quicksort346825559
	sim-bpred -bpred 2lev -bpred:2lev 1 1024 10 1 multi_quicksort346825559
	sim-bpred -bpred 2lev -bpred:2lev 1 2048 10 1 multi_quicksort346825559
	sim-bpred -bpred 2lev -bpred:2lev 1 4096 10 1 multi_quicksort346825559
	sslittle-na-sstrix-gcc -Wall -O3 -funroll-loops -finline-functions  -DRANDOM_SIZE=65536 -DOFFSET=5 -DSORT=multi_quicksort sorts/multi_quicksort443498241.c simpleMain.c -o multi_quicksort346825559
	sim-cache -cache:dl1 dl1:256:32:1:l -cache:dl2 dl2:131072:32:1:l -cache:il1 il1:256:32:1:l -cache:il2 dl2 multi_quicksort346825559
	sim-cache -cache:dl1 dl1:256:32:1:l -cache:dl2 dl2:65536:32:1:l -cache:il1 il1:256:32:1:l -cache:il2 dl2 multi_quicksort346825559
	sim-cache -cache:dl1 dl1:1:32:256:l -cache:dl2 dl2:1:32:131072:l -cache:il1 il1:1:32:256:l -cache:il2 dl2 multi_quicksort346825559
	sim-cache -cache:dl1 dl1:1:32:256:l -cache:dl2 dl2:1:32:65536:l -cache:il1 il1:1:32:256:l -cache:il2 dl2 multi_quicksort346825559
	sim-bpred -bpred bimod -bpred:bimod 512 multi_quicksort346825559
	sim-bpred -bpred bimod -bpred:bimod 1024 multi_quicksort346825559
	sim-bpred -bpred bimod -bpred:bimod 2048 multi_quicksort346825559
	sim-bpred -bpred 2lev -bpred:2lev 1 512 10 1 multi_quicksort346825559
	sim-bpred -bpred 2lev -bpred:2lev 1 1024 10 1 multi_quicksort346825559
	sim-bpred -bpred 2lev -bpred:2lev 1 2048 10 1 multi_quicksort346825559
	sim-bpred -bpred 2lev -bpred:2lev 1 4096 10 1 multi_quicksort346825559
	sslittle-na-sstrix-gcc -Wall -O3 -funroll-loops -finline-functions  -DRANDOM_SIZE=131072 -DOFFSET=5 -DSORT=multi_quicksort sorts/multi_quicksort443498241.c simpleMain.c -o multi_quicksort346825559
	sim-cache -cache:dl1 dl1:256:32:1:l -cache:dl2 dl2:131072:32:1:l -cache:il1 il1:256:32:1:l -cache:il2 dl2 multi_quicksort346825559
	sim-cache -cache:dl1 dl1:256:32:1:l -cache:dl2 dl2:65536:32:1:l -cache:il1 il1:256:32:1:l -cache:il2 dl2 multi_quicksort346825559
	sim-cache -cache:dl1 dl1:1:32:256:l -cache:dl2 dl2:1:32:131072:l -cache:il1 il1:1:32:256:l -cache:il2 dl2 multi_quicksort346825559
	sim-cache -cache:dl1 dl1:1:32:256:l -cache:dl2 dl2:1:32:65536:l -cache:il1 il1:1:32:256:l -cache:il2 dl2 multi_quicksort346825559
	sim-bpred -bpred bimod -bpred:bimod 512 multi_quicksort346825559
	sim-bpred -bpred bimod -bpred:bimod 1024 multi_quicksort346825559
	sim-bpred -bpred bimod -bpred:bimod 2048 multi_quicksort346825559
	sim-bpred -bpred 2lev -bpred:2lev 1 512 10 1 multi_quicksort346825559
	sim-bpred -bpred 2lev -bpred:2lev 1 1024 10 1 multi_quicksort346825559
	sim-bpred -bpred 2lev -bpred:2lev 1 2048 10 1 multi_quicksort346825559
	sim-bpred -bpred 2lev -bpred:2lev 1 4096 10 1 multi_quicksort346825559
	sslittle-na-sstrix-gcc -Wall -O3 -funroll-loops -finline-functions  -DRANDOM_SIZE=262144 -DOFFSET=5 -DSORT=multi_quicksort sorts/multi_quicksort443498241.c simpleMain.c -o multi_quicksort346825559
	sim-cache -cache:dl1 dl1:256:32:1:l -cache:dl2 dl2:131072:32:1:l -cache:il1 il1:256:32:1:l -cache:il2 dl2 multi_quicksort346825559
	sim-cache -cache:dl1 dl1:256:32:1:l -cache:dl2 dl2:65536:32:1:l -cache:il1 il1:256:32:1:l -cache:il2 dl2 multi_quicksort346825559
	sim-cache -cache:dl1 dl1:1:32:256:l -cache:dl2 dl2:1:32:131072:l -cache:il1 il1:1:32:256:l -cache:il2 dl2 multi_quicksort346825559
	sim-cache -cache:dl1 dl1:1:32:256:l -cache:dl2 dl2:1:32:65536:l -cache:il1 il1:1:32:256:l -cache:il2 dl2 multi_quicksort346825559
	sim-bpred -bpred bimod -bpred:bimod 512 multi_quicksort346825559
	sim-bpred -bpred bimod -bpred:bimod 1024 multi_quicksort346825559
	sim-bpred -bpred bimod -bpred:bimod 2048 multi_quicksort346825559
	sim-bpred -bpred 2lev -bpred:2lev 1 512 10 1 multi_quicksort346825559
	sim-bpred -bpred 2lev -bpred:2lev 1 1024 10 1 multi_quicksort346825559
	sim-bpred -bpred 2lev -bpred:2lev 1 2048 10 1 multi_quicksort346825559
	sim-bpred -bpred 2lev -bpred:2lev 1 4096 10 1 multi_quicksort346825559
	sslittle-na-sstrix-gcc -Wall -O3 -funroll-loops -finline-functions  -DRANDOM_SIZE=524288 -DOFFSET=5 -DSORT=multi_quicksort sorts/multi_quicksort443498241.c simpleMain.c -o multi_quicksort346825559
	sim-cache -cache:dl1 dl1:256:32:1:l -cache:dl2 dl2:131072:32:1:l -cache:il1 il1:256:32:1:l -cache:il2 dl2 multi_quicksort346825559
	sim-cache -cache:dl1 dl1:256:32:1:l -cache:dl2 dl2:65536:32:1:l -cache:il1 il1:256:32:1:l -cache:il2 dl2 multi_quicksort346825559
	sim-cache -cache:dl1 dl1:1:32:256:l -cache:dl2 dl2:1:32:131072:l -cache:il1 il1:1:32:256:l -cache:il2 dl2 multi_quicksort346825559
	sim-cache -cache:dl1 dl1:1:32:256:l -cache:dl2 dl2:1:32:65536:l -cache:il1 il1:1:32:256:l -cache:il2 dl2 multi_quicksort346825559
	sim-bpred -bpred bimod -bpred:bimod 512 multi_quicksort346825559
	sim-bpred -bpred bimod -bpred:bimod 1024 multi_quicksort346825559
	sim-bpred -bpred bimod -bpred:bimod 2048 multi_quicksort346825559
	sim-bpred -bpred 2lev -bpred:2lev 1 512 10 1 multi_quicksort346825559
	sim-bpred -bpred 2lev -bpred:2lev 1 1024 10 1 multi_quicksort346825559
	sim-bpred -bpred 2lev -bpred:2lev 1 2048 10 1 multi_quicksort346825559
	sim-bpred -bpred 2lev -bpred:2lev 1 4096 10 1 multi_quicksort346825559
	sslittle-na-sstrix-gcc -Wall -O3 -funroll-loops -finline-functions  -DRANDOM_SIZE=1048576 -DOFFSET=5 -DSORT=multi_quicksort sorts/multi_quicksort443498241.c simpleMain.c -o multi_quicksort346825559
	sim-cache -cache:dl1 dl1:256:32:1:l -cache:dl2 dl2:131072:32:1:l -cache:il1 il1:256:32:1:l -cache:il2 dl2 multi_quicksort346825559
	sim-cache -cache:dl1 dl1:256:32:1:l -cache:dl2 dl2:65536:32:1:l -cache:il1 il1:256:32:1:l -cache:il2 dl2 multi_quicksort346825559
	sim-cache -cache:dl1 dl1:1:32:256:l -cache:dl2 dl2:1:32:131072:l -cache:il1 il1:1:32:256:l -cache:il2 dl2 multi_quicksort346825559
	sim-cache -cache:dl1 dl1:1:32:256:l -cache:dl2 dl2:1:32:65536:l -cache:il1 il1:1:32:256:l -cache:il2 dl2 multi_quicksort346825559
	sim-bpred -bpred bimod -bpred:bimod 512 multi_quicksort346825559
	sim-bpred -bpred bimod -bpred:bimod 1024 multi_quicksort346825559
	sim-bpred -bpred bimod -bpred:bimod 2048 multi_quicksort346825559
	sim-bpred -bpred 2lev -bpred:2lev 1 512 10 1 multi_quicksort346825559
	sim-bpred -bpred 2lev -bpred:2lev 1 1024 10 1 multi_quicksort346825559
	sim-bpred -bpred 2lev -bpred:2lev 1 2048 10 1 multi_quicksort346825559
	sim-bpred -bpred 2lev -bpred:2lev 1 4096 10 1 multi_quicksort346825559
	sslittle-na-sstrix-gcc -Wall -O3 -funroll-loops -finline-functions  -DRANDOM_SIZE=2097152 -DOFFSET=5 -DSORT=multi_quicksort sorts/multi_quicksort443498241.c simpleMain.c -o multi_quicksort346825559
	sim-cache -cache:dl1 dl1:256:32:1:l -cache:dl2 dl2:131072:32:1:l -cache:il1 il1:256:32:1:l -cache:il2 dl2 multi_quicksort346825559
	sim-cache -cache:dl1 dl1:256:32:1:l -cache:dl2 dl2:65536:32:1:l -cache:il1 il1:256:32:1:l -cache:il2 dl2 multi_quicksort346825559
	sim-cache -cache:dl1 dl1:1:32:256:l -cache:dl2 dl2:1:32:131072:l -cache:il1 il1:1:32:256:l -cache:il2 dl2 multi_quicksort346825559
	sim-cache -cache:dl1 dl1:1:32:256:l -cache:dl2 dl2:1:32:65536:l -cache:il1 il1:1:32:256:l -cache:il2 dl2 multi_quicksort346825559
	sim-bpred -bpred bimod -bpred:bimod 512 multi_quicksort346825559
	sim-bpred -bpred bimod -bpred:bimod 1024 multi_quicksort346825559
	sim-bpred -bpred bimod -bpred:bimod 2048 multi_quicksort346825559
	sim-bpred -bpred 2lev -bpred:2lev 1 512 10 1 multi_quicksort346825559
	sim-bpred -bpred 2lev -bpred:2lev 1 1024 10 1 multi_quicksort346825559
	sim-bpred -bpred 2lev -bpred:2lev 1 2048 10 1 multi_quicksort346825559
	sim-bpred -bpred 2lev -bpred:2lev 1 4096 10 1 multi_quicksort346825559
	sslittle-na-sstrix-gcc -Wall -O3 -funroll-loops -finline-functions  -DRANDOM_SIZE=4194304 -DOFFSET=5 -DSORT=multi_quicksort sorts/multi_quicksort443498241.c simpleMain.c -o multi_quicksort346825559
	sim-cache -cache:dl1 dl1:256:32:1:l -cache:dl2 dl2:131072:32:1:l -cache:il1 il1:256:32:1:l -cache:il2 dl2 multi_quicksort346825559
	sim-cache -cache:dl1 dl1:256:32:1:l -cache:dl2 dl2:65536:32:1:l -cache:il1 il1:256:32:1:l -cache:il2 dl2 multi_quicksort346825559
	sim-cache -cache:dl1 dl1:1:32:256:l -cache:dl2 dl2:1:32:131072:l -cache:il1 il1:1:32:256:l -cache:il2 dl2 multi_quicksort346825559
	sim-cache -cache:dl1 dl1:1:32:256:l -cache:dl2 dl2:1:32:65536:l -cache:il1 il1:1:32:256:l -cache:il2 dl2 multi_quicksort346825559
	sim-bpred -bpred bimod -bpred:bimod 512 multi_quicksort346825559
	sim-bpred -bpred bimod -bpred:bimod 1024 multi_quicksort346825559
	sim-bpred -bpred bimod -bpred:bimod 2048 multi_quicksort346825559
	sim-bpred -bpred 2lev -bpred:2lev 1 512 10 1 multi_quicksort346825559
	sim-bpred -bpred 2lev -bpred:2lev 1 1024 10 1 multi_quicksort346825559
	sim-bpred -bpred 2lev -bpred:2lev 1 2048 10 1 multi_quicksort346825559
	sim-bpred -bpred 2lev -bpred:2lev 1 4096 10 1 multi_quicksort346825559
