Tue Jul 26 06:11:56 2005
Run as: "./do_simple -c random.org7 -o 7 multi_quicksort"
-------------------------------------------------------------------------------------------------
sim-cache                                     4096 |         4096 |         4096 |         4096 |         8192 |         8192 |         8192 |         8192 |        16384 |        16384 |        16384 |        16384 |        32768 |        32768 |        32768 |        32768 |        65536 |        65536 |        65536 |        65536 |       131072 |       131072 |       131072 |       131072 |       262144 |       262144 |       262144 |       262144 |       524288 |       524288 |       524288 |       524288 |      1048576 |      1048576 |      1048576 |      1048576 |      2097152 |      2097152 |      2097152 |      2097152 |      4194304 |      4194304 |      4194304 |      4194304 |
-cache:dl1 dl1:256:32:1:l -cache:dl2 dl2:131072:32:1:l -cache:il1 il1:256:32:1:l -cache:il2 dl2
-cache:dl1 dl1:256:32:1:l -cache:dl2 dl2:65536:32:1:l -cache:il1 il1:256:32:1:l -cache:il2 dl2
-cache:dl1 dl1:1:32:256:l -cache:dl2 dl2:1:32:131072:l -cache:il1 il1:1:32:256:l -cache:il2 dl2
-cache:dl1 dl1:1:32:256:l -cache:dl2 dl2:1:32:65536:l -cache:il1 il1:1:32:256:l -cache:il2 dl2
-------------------------------------------------------------------------------------------------
sim_num_insn                                476615 |       476615 |       476615 |       476615 |      1002733 |      1002733 |      1002733 |      1002733 |      2138705 |      2138705 |      2138705 |      2138705 |      4693373 |      4693373 |      4693373 |      4693373 |      9858543 |      9858543 |      9858543 |      9858543 |     20589951 |     20589951 |     20589951 |     20589951 |     43778487 |     43778487 |     43778487 |     43778487 |     93161529 |     93161529 |     93161529 |     93161529 |    194442614 |    194442614 |    194442614 |    194442614 |    527241326 |    527241326 |    527241326 |    527241326 |   1119566266 |   1119566266 |   1119566266 |   1119566266 |
sim_num_refs                                124622 |       124622 |       124622 |       124622 |       260008 |       260008 |       260008 |       260008 |       550929 |       550929 |       550929 |       550929 |      1180230 |      1180230 |      1180230 |      1180230 |      2481493 |      2481493 |      2481493 |      2481493 |      5190595 |      5190595 |      5190595 |      5190595 |     10966145 |     10966145 |     10966145 |     10966145 |     23144348 |     23144348 |     23144348 |     23144348 |     48328914 |     48328914 |     48328914 |     48328914 |    128199934 |    128199934 |    128199934 |    128199934 |    266828771 |    266828771 |    266828771 |    266828771 |
sim_elapsed_time                                 1 |            1 |            8 |            4 |            1 |            1 |           10 |            5 |            1 |            1 |           15 |            8 |            1 |            1 |           27 |           14 |            3 |            2 |           47 |           24 |            6 |            5 |           89 |           45 |           12 |           11 |          164 |           77 |           25 |           25 |          282 |          110 |           51 |           52 |          391 |          138 |          141 |          141 |          488 |          234 |          298 |          299 |          655 |          402 |
sim_inst_rate                          476615.0000 |  476615.0000 |   59576.8750 |  119153.7500 | 1002733.0000 | 1002733.0000 |  100273.3000 |  200546.6000 | 2138705.0000 | 2138705.0000 |  142580.3333 |  267338.1250 | 4693373.0000 | 4693373.0000 |  173828.6296 |  335240.9286 | 3286181.0000 | 4929271.5000 |  209756.2340 |  410772.6250 | 3431658.5000 | 4117990.2000 |  231347.7640 |  457554.4667 | 3648207.2500 | 3979862.4545 |  266941.9939 |  568551.7792 | 3726461.1600 | 3726461.1600 |  330360.0319 |  846922.9909 | 3812600.2745 | 3739281.0385 |  497295.6880 | 1409004.4493 | 3739300.1844 | 3739300.1844 | 1080412.5533 | 2253168.0598 | 3756933.7785 | 3744368.7826 | 1709261.4748 | 2784990.7114 |
il1.accesses                                476615 |       476615 |       476615 |       476615 |      1002733 |      1002733 |      1002733 |      1002733 |      2138705 |      2138705 |      2138705 |      2138705 |      4693373 |      4693373 |      4693373 |      4693373 |      9858543 |      9858543 |      9858543 |      9858543 |     20589951 |     20589951 |     20589951 |     20589951 |     43778487 |     43778487 |     43778487 |     43778487 |     93161529 |     93161529 |     93161529 |     93161529 |    194442614 |    194442614 |    194442614 |    194442614 |    527241326 |    527241326 |    527241326 |    527241326 |   1119566266 |   1119566266 |   1119566266 |   1119566266 |
il1.hits                                    476137 |       476137 |       476176 |       476176 |      1002265 |      1002265 |      1002302 |      1002302 |      2138238 |      2138238 |      2138266 |      2138266 |      4692893 |      4692893 |      4692929 |      4692929 |      9858066 |      9858066 |      9858102 |      9858102 |     20589477 |     20589477 |     20589513 |     20589513 |     43778007 |     43778007 |     43778043 |     43778043 |     93161049 |     93161049 |     93161085 |     93161085 |    194442140 |    194442140 |    194442176 |    194442176 |    527240578 |    527240578 |    527240628 |    527240628 |   1119565518 |   1119565518 |   1119565568 |   1119565568 |
il1.misses                                     478 |          478 |          439 |          439 |          468 |          468 |          431 |          431 |          467 |          467 |          439 |          439 |          480 |          480 |          444 |          444 |          477 |          477 |          441 |          441 |          474 |          474 |          438 |          438 |          480 |          480 |          444 |          444 |          480 |          480 |          444 |          444 |          474 |          474 |          438 |          438 |          748 |          748 |          698 |          698 |          748 |          748 |          698 |          698 |
il1.replacements                               237 |          237 |          183 |          183 |          228 |          228 |          175 |          175 |          222 |          222 |          183 |          183 |          237 |          237 |          188 |          188 |          234 |          234 |          185 |          185 |          231 |          231 |          182 |          182 |          237 |          237 |          188 |          188 |          237 |          237 |          188 |          188 |          231 |          231 |          182 |          182 |          492 |          492 |          442 |          442 |          492 |          492 |          442 |          442 |
il1.writebacks                                   0 |            0 |            0 |            0 |            0 |            0 |            0 |            0 |            0 |            0 |            0 |            0 |            0 |            0 |            0 |            0 |            0 |            0 |            0 |            0 |            0 |            0 |            0 |            0 |            0 |            0 |            0 |            0 |            0 |            0 |            0 |            0 |            0 |            0 |            0 |            0 |            0 |            0 |            0 |            0 |            0 |            0 |            0 |            0 |
il1.invalidations                                0 |            0 |            0 |            0 |            0 |            0 |            0 |            0 |            0 |            0 |            0 |            0 |            0 |            0 |            0 |            0 |            0 |            0 |            0 |            0 |            0 |            0 |            0 |            0 |            0 |            0 |            0 |            0 |            0 |            0 |            0 |            0 |            0 |            0 |            0 |            0 |            0 |            0 |            0 |            0 |            0 |            0 |            0 |            0 |
il1.miss_rate                               0.0010 |       0.0010 |       0.0009 |       0.0009 |       0.0005 |       0.0005 |       0.0004 |       0.0004 |       0.0002 |       0.0002 |       0.0002 |       0.0002 |       0.0001 |       0.0001 |       0.0001 |       0.0001 |       0.0000 |       0.0000 |       0.0000 |       0.0000 |       0.0000 |       0.0000 |       0.0000 |       0.0000 |       0.0000 |       0.0000 |       0.0000 |       0.0000 |       0.0000 |       0.0000 |       0.0000 |       0.0000 |       0.0000 |       0.0000 |       0.0000 |       0.0000 |       0.0000 |       0.0000 |       0.0000 |       0.0000 |       0.0000 |       0.0000 |       0.0000 |       0.0000 |
il1.repl_rate                               0.0005 |       0.0005 |       0.0004 |       0.0004 |       0.0002 |       0.0002 |       0.0002 |       0.0002 |       0.0001 |       0.0001 |       0.0001 |       0.0001 |       0.0001 |       0.0001 |       0.0000 |       0.0000 |       0.0000 |       0.0000 |       0.0000 |       0.0000 |       0.0000 |       0.0000 |       0.0000 |       0.0000 |       0.0000 |       0.0000 |       0.0000 |       0.0000 |       0.0000 |       0.0000 |       0.0000 |       0.0000 |       0.0000 |       0.0000 |       0.0000 |       0.0000 |       0.0000 |       0.0000 |       0.0000 |       0.0000 |       0.0000 |       0.0000 |       0.0000 |       0.0000 |
il1.wb_rate                                 0.0000 |       0.0000 |       0.0000 |       0.0000 |       0.0000 |       0.0000 |       0.0000 |       0.0000 |       0.0000 |       0.0000 |       0.0000 |       0.0000 |       0.0000 |       0.0000 |       0.0000 |       0.0000 |       0.0000 |       0.0000 |       0.0000 |       0.0000 |       0.0000 |       0.0000 |       0.0000 |       0.0000 |       0.0000 |       0.0000 |       0.0000 |       0.0000 |       0.0000 |       0.0000 |       0.0000 |       0.0000 |       0.0000 |       0.0000 |       0.0000 |       0.0000 |       0.0000 |       0.0000 |       0.0000 |       0.0000 |       0.0000 |       0.0000 |       0.0000 |       0.0000 |
il1.inv_rate                                0.0000 |       0.0000 |       0.0000 |       0.0000 |       0.0000 |       0.0000 |       0.0000 |       0.0000 |       0.0000 |       0.0000 |       0.0000 |       0.0000 |       0.0000 |       0.0000 |       0.0000 |       0.0000 |       0.0000 |       0.0000 |       0.0000 |       0.0000 |       0.0000 |       0.0000 |       0.0000 |       0.0000 |       0.0000 |       0.0000 |       0.0000 |       0.0000 |       0.0000 |       0.0000 |       0.0000 |       0.0000 |       0.0000 |       0.0000 |       0.0000 |       0.0000 |       0.0000 |       0.0000 |       0.0000 |       0.0000 |       0.0000 |       0.0000 |       0.0000 |       0.0000 |
dl1.accesses                                141088 |       141088 |       141088 |       141088 |       292858 |       292858 |       292858 |       292858 |       616547 |       616547 |       616547 |       616547 |      1311384 |      1311384 |      1311384 |      1311384 |      2743719 |      2743719 |      2743719 |      2743719 |      5714965 |      5714965 |      5714965 |      5714965 |     12014803 |     12014803 |     12014803 |     12014803 |     25241582 |     25241582 |     25241582 |     25241582 |     52523300 |     52523300 |     52523300 |     52523300 |    136588625 |    136588625 |    136588625 |    136588625 |    283606070 |    283606070 |    283606070 |    283606070 |
dl1.hits                                    138796 |       138796 |       138598 |       138598 |       287441 |       287441 |       287515 |       287515 |       604523 |       604523 |       604347 |       604347 |      1280414 |      1280414 |      1280461 |      1280461 |      2674942 |      2674942 |      2675407 |      2675407 |      5566712 |      5566712 |      5567144 |      5567144 |     11675103 |     11675103 |     11678471 |     11678471 |     24463268 |     24463268 |     24471358 |     24471358 |     50845245 |     50845245 |     50864111 |     50864111 |    129205918 |    129205918 |    132895224 |    132895224 |    271588461 |    271588461 |    275998327 |    275998327 |
dl1.misses                                    2292 |         2292 |         2490 |         2490 |         5417 |         5417 |         5343 |         5343 |        12024 |        12024 |        12200 |        12200 |        30970 |        30970 |        30923 |        30923 |        68777 |        68777 |        68312 |        68312 |       148253 |       148253 |       147821 |       147821 |       339700 |       339700 |       336332 |       336332 |       778314 |       778314 |       770224 |       770224 |      1678055 |      1678055 |      1659189 |      1659189 |      7382707 |      7382707 |      3693401 |      3693401 |     12017609 |     12017609 |      7607743 |      7607743 |
dl1.replacements                              2036 |         2036 |         2234 |         2234 |         5161 |         5161 |         5087 |         5087 |        11768 |        11768 |        11944 |        11944 |        30714 |        30714 |        30667 |        30667 |        68521 |        68521 |        68056 |        68056 |       147997 |       147997 |       147565 |       147565 |       339444 |       339444 |       336076 |       336076 |       778058 |       778058 |       769968 |       769968 |      1677799 |      1677799 |      1658933 |      1658933 |      7382451 |      7382451 |      3693145 |      3693145 |     12017353 |     12017353 |      7607487 |      7607487 |
dl1.writebacks                                1926 |         1926 |         2059 |         2059 |         4846 |         4846 |         4828 |         4828 |        11123 |        11123 |        11345 |        11345 |        27479 |        27479 |        27561 |        27561 |        62717 |        62717 |        62875 |        62875 |       139532 |       139532 |       140423 |       140423 |       315676 |       315676 |       315672 |       315672 |       712515 |       712515 |       712025 |       712025 |      1552135 |      1552135 |      1550663 |      1550663 |      5113105 |      5113105 |      2972418 |      2972418 |     10024913 |     10024913 |      6104249 |      6104249 |
dl1.invalidations                                0 |            0 |            0 |            0 |            0 |            0 |            0 |            0 |            0 |            0 |            0 |            0 |            0 |            0 |            0 |            0 |            0 |            0 |            0 |            0 |            0 |            0 |            0 |            0 |            0 |            0 |            0 |            0 |            0 |            0 |            0 |            0 |            0 |            0 |            0 |            0 |            0 |            0 |            0 |            0 |            0 |            0 |            0 |            0 |
dl1.miss_rate                               0.0162 |       0.0162 |       0.0176 |       0.0176 |       0.0185 |       0.0185 |       0.0182 |       0.0182 |       0.0195 |       0.0195 |       0.0198 |       0.0198 |       0.0236 |       0.0236 |       0.0236 |       0.0236 |       0.0251 |       0.0251 |       0.0249 |       0.0249 |       0.0259 |       0.0259 |       0.0259 |       0.0259 |       0.0283 |       0.0283 |       0.0280 |       0.0280 |       0.0308 |       0.0308 |       0.0305 |       0.0305 |       0.0319 |       0.0319 |       0.0316 |       0.0316 |       0.0541 |       0.0541 |       0.0270 |       0.0270 |       0.0424 |       0.0424 |       0.0268 |       0.0268 |
dl1.repl_rate                               0.0144 |       0.0144 |       0.0158 |       0.0158 |       0.0176 |       0.0176 |       0.0174 |       0.0174 |       0.0191 |       0.0191 |       0.0194 |       0.0194 |       0.0234 |       0.0234 |       0.0234 |       0.0234 |       0.0250 |       0.0250 |       0.0248 |       0.0248 |       0.0259 |       0.0259 |       0.0258 |       0.0258 |       0.0283 |       0.0283 |       0.0280 |       0.0280 |       0.0308 |       0.0308 |       0.0305 |       0.0305 |       0.0319 |       0.0319 |       0.0316 |       0.0316 |       0.0540 |       0.0540 |       0.0270 |       0.0270 |       0.0424 |       0.0424 |       0.0268 |       0.0268 |
dl1.wb_rate                                 0.0137 |       0.0137 |       0.0146 |       0.0146 |       0.0165 |       0.0165 |       0.0165 |       0.0165 |       0.0180 |       0.0180 |       0.0184 |       0.0184 |       0.0210 |       0.0210 |       0.0210 |       0.0210 |       0.0229 |       0.0229 |       0.0229 |       0.0229 |       0.0244 |       0.0244 |       0.0246 |       0.0246 |       0.0263 |       0.0263 |       0.0263 |       0.0263 |       0.0282 |       0.0282 |       0.0282 |       0.0282 |       0.0296 |       0.0296 |       0.0295 |       0.0295 |       0.0374 |       0.0374 |       0.0218 |       0.0218 |       0.0353 |       0.0353 |       0.0215 |       0.0215 |
dl1.inv_rate                                0.0000 |       0.0000 |       0.0000 |       0.0000 |       0.0000 |       0.0000 |       0.0000 |       0.0000 |       0.0000 |       0.0000 |       0.0000 |       0.0000 |       0.0000 |       0.0000 |       0.0000 |       0.0000 |       0.0000 |       0.0000 |       0.0000 |       0.0000 |       0.0000 |       0.0000 |       0.0000 |       0.0000 |       0.0000 |       0.0000 |       0.0000 |       0.0000 |       0.0000 |       0.0000 |       0.0000 |       0.0000 |       0.0000 |       0.0000 |       0.0000 |       0.0000 |       0.0000 |       0.0000 |       0.0000 |       0.0000 |       0.0000 |       0.0000 |       0.0000 |       0.0000 |
dl2.accesses                                  4696 |         4696 |         4988 |         4988 |        10731 |        10731 |        10602 |        10602 |        23614 |        23614 |        23984 |        23984 |        58929 |        58929 |        58928 |        58928 |       131971 |       131971 |       131628 |       131628 |       288259 |       288259 |       288682 |       288682 |       655856 |       655856 |       652448 |       652448 |      1491309 |      1491309 |      1482693 |      1482693 |      3230664 |      3230664 |      3210290 |      3210290 |     12496560 |     12496560 |      6666517 |      6666517 |     22043270 |     22043270 |     13712690 |     13712690 |
dl2.hits                                      3266 |         3266 |         3599 |         3599 |         8797 |         8797 |         8709 |         8709 |        20665 |        20665 |        21073 |        21073 |        53924 |        53924 |        53966 |        53966 |       122872 |       122872 |       122572 |       122572 |       270971 |       270971 |       271437 |       271437 |       622178 |       622178 |       618813 |       618813 |      1424863 |      1424225 |      1416290 |      1327617 |      3098050 |      2839903 |      2934912 |      2801554 |     11144956 |     11111964 |      5364385 |      5305958 |     19332145 |     19241051 |     11057918 |     10863623 |
dl2.misses                                    1430 |         1430 |         1389 |         1389 |         1934 |         1934 |         1893 |         1893 |         2949 |         2949 |         2911 |         2911 |         5005 |         5005 |         4962 |         4962 |         9099 |         9099 |         9056 |         9056 |        17288 |        17288 |        17245 |        17245 |        33678 |        33678 |        33635 |        33635 |        66446 |        67084 |        66403 |       155076 |       132614 |       390761 |       275378 |       408736 |      1351604 |      1384596 |      1302132 |      1360559 |      2711125 |      2802219 |      2654772 |      2849067 |
dl2.replacements                               288 |          288 |            0 |            0 |          288 |          288 |            0 |            0 |          289 |          289 |            0 |            0 |          295 |          295 |            0 |            0 |          292 |          292 |            0 |            0 |          289 |          289 |            0 |            0 |          295 |          295 |            0 |            0 |          295 |         1548 |            0 |        89540 |         1542 |       325225 |       144306 |       343200 |      1220532 |      1319060 |      1171060 |      1295023 |      2580053 |      2736683 |      2523700 |      2783531 |
dl2.writebacks                                 154 |          154 |            0 |            0 |          153 |          153 |            0 |            0 |          152 |          152 |            0 |            0 |          153 |          153 |            0 |            0 |          153 |          153 |            0 |            0 |          153 |          153 |            0 |            0 |          153 |          153 |            0 |            0 |          153 |         1272 |            0 |        84600 |         1268 |       317067 |       139660 |       335044 |       735274 |       799600 |       724209 |       803631 |      1565953 |      1688115 |      1547717 |      1744060 |
dl2.invalidations                                0 |            0 |            0 |            0 |            0 |            0 |            0 |            0 |            0 |            0 |            0 |            0 |            0 |            0 |            0 |            0 |            0 |            0 |            0 |            0 |            0 |            0 |            0 |            0 |            0 |            0 |            0 |            0 |            0 |            0 |            0 |            0 |            0 |            0 |            0 |            0 |            0 |            0 |            0 |            0 |            0 |            0 |            0 |            0 |
dl2.miss_rate                               0.3045 |       0.3045 |       0.2785 |       0.2785 |       0.1802 |       0.1802 |       0.1786 |       0.1786 |       0.1249 |       0.1249 |       0.1214 |       0.1214 |       0.0849 |       0.0849 |       0.0842 |       0.0842 |       0.0689 |       0.0689 |       0.0688 |       0.0688 |       0.0600 |       0.0600 |       0.0597 |       0.0597 |       0.0513 |       0.0513 |       0.0516 |       0.0516 |       0.0446 |       0.0450 |       0.0448 |       0.1046 |       0.0410 |       0.1210 |       0.0858 |       0.1273 |       0.1082 |       0.1108 |       0.1953 |       0.2041 |       0.1230 |       0.1271 |       0.1936 |       0.2078 |
dl2.repl_rate                               0.0613 |       0.0613 |       0.0000 |       0.0000 |       0.0268 |       0.0268 |       0.0000 |       0.0000 |       0.0122 |       0.0122 |       0.0000 |       0.0000 |       0.0050 |       0.0050 |       0.0000 |       0.0000 |       0.0022 |       0.0022 |       0.0000 |       0.0000 |       0.0010 |       0.0010 |       0.0000 |       0.0000 |       0.0004 |       0.0004 |       0.0000 |       0.0000 |       0.0002 |       0.0010 |       0.0000 |       0.0604 |       0.0005 |       0.1007 |       0.0450 |       0.1069 |       0.0977 |       0.1056 |       0.1757 |       0.1943 |       0.1170 |       0.1242 |       0.1840 |       0.2030 |
dl2.wb_rate                                 0.0328 |       0.0328 |       0.0000 |       0.0000 |       0.0143 |       0.0143 |       0.0000 |       0.0000 |       0.0064 |       0.0064 |       0.0000 |       0.0000 |       0.0026 |       0.0026 |       0.0000 |       0.0000 |       0.0012 |       0.0012 |       0.0000 |       0.0000 |       0.0005 |       0.0005 |       0.0000 |       0.0000 |       0.0002 |       0.0002 |       0.0000 |       0.0000 |       0.0001 |       0.0009 |       0.0000 |       0.0571 |       0.0004 |       0.0981 |       0.0435 |       0.1044 |       0.0588 |       0.0640 |       0.1086 |       0.1205 |       0.0710 |       0.0766 |       0.1129 |       0.1272 |
dl2.inv_rate                                0.0000 |       0.0000 |       0.0000 |       0.0000 |       0.0000 |       0.0000 |       0.0000 |       0.0000 |       0.0000 |       0.0000 |       0.0000 |       0.0000 |       0.0000 |       0.0000 |       0.0000 |       0.0000 |       0.0000 |       0.0000 |       0.0000 |       0.0000 |       0.0000 |       0.0000 |       0.0000 |       0.0000 |       0.0000 |       0.0000 |       0.0000 |       0.0000 |       0.0000 |       0.0000 |       0.0000 |       0.0000 |       0.0000 |       0.0000 |       0.0000 |       0.0000 |       0.0000 |       0.0000 |       0.0000 |       0.0000 |       0.0000 |       0.0000 |       0.0000 |       0.0000 |
itlb.accesses                               476615 |       476615 |       476615 |       476615 |      1002733 |      1002733 |      1002733 |      1002733 |      2138705 |      2138705 |      2138705 |      2138705 |      4693373 |      4693373 |      4693373 |      4693373 |      9858543 |      9858543 |      9858543 |      9858543 |     20589951 |     20589951 |     20589951 |     20589951 |     43778487 |     43778487 |     43778487 |     43778487 |     93161529 |     93161529 |     93161529 |     93161529 |    194442614 |    194442614 |    194442614 |    194442614 |    527241326 |    527241326 |    527241326 |    527241326 |   1119566266 |   1119566266 |   1119566266 |   1119566266 |
itlb.hits                                   476604 |       476604 |       476604 |       476604 |      1002722 |      1002722 |      1002722 |      1002722 |      2138694 |      2138694 |      2138694 |      2138694 |      4693361 |      4693361 |      4693361 |      4693361 |      9858531 |      9858531 |      9858531 |      9858531 |     20589939 |     20589939 |     20589939 |     20589939 |     43778475 |     43778475 |     43778475 |     43778475 |     93161517 |     93161517 |     93161517 |     93161517 |    194442602 |    194442602 |    194442602 |    194442602 |    527241314 |    527241314 |    527241314 |    527241314 |   1119566254 |   1119566254 |   1119566254 |   1119566254 |
itlb.misses                                     11 |           11 |           11 |           11 |           11 |           11 |           11 |           11 |           11 |           11 |           11 |           11 |           12 |           12 |           12 |           12 |           12 |           12 |           12 |           12 |           12 |           12 |           12 |           12 |           12 |           12 |           12 |           12 |           12 |           12 |           12 |           12 |           12 |           12 |           12 |           12 |           12 |           12 |           12 |           12 |           12 |           12 |           12 |           12 |
itlb.replacements                                0 |            0 |            0 |            0 |            0 |            0 |            0 |            0 |            0 |            0 |            0 |            0 |            0 |            0 |            0 |            0 |            0 |            0 |            0 |            0 |            0 |            0 |            0 |            0 |            0 |            0 |            0 |            0 |            0 |            0 |            0 |            0 |            0 |            0 |            0 |            0 |            0 |            0 |            0 |            0 |            0 |            0 |            0 |            0 |
itlb.writebacks                                  0 |            0 |            0 |            0 |            0 |            0 |            0 |            0 |            0 |            0 |            0 |            0 |            0 |            0 |            0 |            0 |            0 |            0 |            0 |            0 |            0 |            0 |            0 |            0 |            0 |            0 |            0 |            0 |            0 |            0 |            0 |            0 |            0 |            0 |            0 |            0 |            0 |            0 |            0 |            0 |            0 |            0 |            0 |            0 |
itlb.invalidations                               0 |            0 |            0 |            0 |            0 |            0 |            0 |            0 |            0 |            0 |            0 |            0 |            0 |            0 |            0 |            0 |            0 |            0 |            0 |            0 |            0 |            0 |            0 |            0 |            0 |            0 |            0 |            0 |            0 |            0 |            0 |            0 |            0 |            0 |            0 |            0 |            0 |            0 |            0 |            0 |            0 |            0 |            0 |            0 |
itlb.miss_rate                              0.0000 |       0.0000 |       0.0000 |       0.0000 |       0.0000 |       0.0000 |       0.0000 |       0.0000 |       0.0000 |       0.0000 |       0.0000 |       0.0000 |       0.0000 |       0.0000 |       0.0000 |       0.0000 |       0.0000 |       0.0000 |       0.0000 |       0.0000 |       0.0000 |       0.0000 |       0.0000 |       0.0000 |       0.0000 |       0.0000 |       0.0000 |       0.0000 |       0.0000 |       0.0000 |       0.0000 |       0.0000 |       0.0000 |       0.0000 |       0.0000 |       0.0000 |       0.0000 |       0.0000 |       0.0000 |       0.0000 |       0.0000 |       0.0000 |       0.0000 |       0.0000 |
itlb.repl_rate                              0.0000 |       0.0000 |       0.0000 |       0.0000 |       0.0000 |       0.0000 |       0.0000 |       0.0000 |       0.0000 |       0.0000 |       0.0000 |       0.0000 |       0.0000 |       0.0000 |       0.0000 |       0.0000 |       0.0000 |       0.0000 |       0.0000 |       0.0000 |       0.0000 |       0.0000 |       0.0000 |       0.0000 |       0.0000 |       0.0000 |       0.0000 |       0.0000 |       0.0000 |       0.0000 |       0.0000 |       0.0000 |       0.0000 |       0.0000 |       0.0000 |       0.0000 |       0.0000 |       0.0000 |       0.0000 |       0.0000 |       0.0000 |       0.0000 |       0.0000 |       0.0000 |
itlb.wb_rate                                0.0000 |       0.0000 |       0.0000 |       0.0000 |       0.0000 |       0.0000 |       0.0000 |       0.0000 |       0.0000 |       0.0000 |       0.0000 |       0.0000 |       0.0000 |       0.0000 |       0.0000 |       0.0000 |       0.0000 |       0.0000 |       0.0000 |       0.0000 |       0.0000 |       0.0000 |       0.0000 |       0.0000 |       0.0000 |       0.0000 |       0.0000 |       0.0000 |       0.0000 |       0.0000 |       0.0000 |       0.0000 |       0.0000 |       0.0000 |       0.0000 |       0.0000 |       0.0000 |       0.0000 |       0.0000 |       0.0000 |       0.0000 |       0.0000 |       0.0000 |       0.0000 |
itlb.inv_rate                               0.0000 |       0.0000 |       0.0000 |       0.0000 |       0.0000 |       0.0000 |       0.0000 |       0.0000 |       0.0000 |       0.0000 |       0.0000 |       0.0000 |       0.0000 |       0.0000 |       0.0000 |       0.0000 |       0.0000 |       0.0000 |       0.0000 |       0.0000 |       0.0000 |       0.0000 |       0.0000 |       0.0000 |       0.0000 |       0.0000 |       0.0000 |       0.0000 |       0.0000 |       0.0000 |       0.0000 |       0.0000 |       0.0000 |       0.0000 |       0.0000 |       0.0000 |       0.0000 |       0.0000 |       0.0000 |       0.0000 |       0.0000 |       0.0000 |       0.0000 |       0.0000 |
dtlb.accesses                               141088 |       141088 |       141088 |       141088 |       292858 |       292858 |       292858 |       292858 |       616547 |       616547 |       616547 |       616547 |      1311384 |      1311384 |      1311384 |      1311384 |      2743719 |      2743719 |      2743719 |      2743719 |      5714965 |      5714965 |      5714965 |      5714965 |     12014803 |     12014803 |     12014803 |     12014803 |     25241582 |     25241582 |     25241582 |     25241582 |     52523300 |     52523300 |     52523300 |     52523300 |    136588625 |    136588625 |    136588625 |    136588625 |    283606070 |    283606070 |    283606070 |    283606070 |
dtlb.hits                                   141076 |       141076 |       141076 |       141076 |       292842 |       292842 |       292842 |       292842 |       616523 |       616523 |       616523 |       616523 |      1311344 |      1311344 |      1311344 |      1311344 |      2743647 |      2743647 |      2743647 |      2743647 |      5714804 |      5714804 |      5714804 |      5714804 |     12013964 |     12013964 |     12013964 |     12013964 |     25239155 |     25239155 |     25239155 |     25239155 |     52517825 |     52517825 |     52517825 |     52517825 |    136574479 |    136574479 |    136574479 |    136574479 |    283576422 |    283576422 |    283576422 |    283576422 |
dtlb.misses                                     12 |           12 |           12 |           12 |           16 |           16 |           16 |           16 |           24 |           24 |           24 |           24 |           40 |           40 |           40 |           40 |           72 |           72 |           72 |           72 |          161 |          161 |          161 |          161 |          839 |          839 |          839 |          839 |         2427 |         2427 |         2427 |         2427 |         5475 |         5475 |         5475 |         5475 |        14146 |        14146 |        14146 |        14146 |        29648 |        29648 |        29648 |        29648 |
dtlb.replacements                                0 |            0 |            0 |            0 |            0 |            0 |            0 |            0 |            0 |            0 |            0 |            0 |            0 |            0 |            0 |            0 |            0 |            0 |            0 |            0 |           33 |           33 |           33 |           33 |          711 |          711 |          711 |          711 |         2299 |         2299 |         2299 |         2299 |         5347 |         5347 |         5347 |         5347 |        14018 |        14018 |        14018 |        14018 |        29520 |        29520 |        29520 |        29520 |
dtlb.writebacks                                  0 |            0 |            0 |            0 |            0 |            0 |            0 |            0 |            0 |            0 |            0 |            0 |            0 |            0 |            0 |            0 |            0 |            0 |            0 |            0 |           31 |           31 |           31 |           31 |          709 |          709 |          709 |          709 |         2297 |         2297 |         2297 |         2297 |         5345 |         5345 |         5345 |         5345 |        11954 |        11954 |        11954 |        11954 |        25396 |        25396 |        25396 |        25396 |
dtlb.invalidations                               0 |            0 |            0 |            0 |            0 |            0 |            0 |            0 |            0 |            0 |            0 |            0 |            0 |            0 |            0 |            0 |            0 |            0 |            0 |            0 |            0 |            0 |            0 |            0 |            0 |            0 |            0 |            0 |            0 |            0 |            0 |            0 |            0 |            0 |            0 |            0 |            0 |            0 |            0 |            0 |            0 |            0 |            0 |            0 |
dtlb.miss_rate                              0.0001 |       0.0001 |       0.0001 |       0.0001 |       0.0001 |       0.0001 |       0.0001 |       0.0001 |       0.0000 |       0.0000 |       0.0000 |       0.0000 |       0.0000 |       0.0000 |       0.0000 |       0.0000 |       0.0000 |       0.0000 |       0.0000 |       0.0000 |       0.0000 |       0.0000 |       0.0000 |       0.0000 |       0.0001 |       0.0001 |       0.0001 |       0.0001 |       0.0001 |       0.0001 |       0.0001 |       0.0001 |       0.0001 |       0.0001 |       0.0001 |       0.0001 |       0.0001 |       0.0001 |       0.0001 |       0.0001 |       0.0001 |       0.0001 |       0.0001 |       0.0001 |
dtlb.repl_rate                              0.0000 |       0.0000 |       0.0000 |       0.0000 |       0.0000 |       0.0000 |       0.0000 |       0.0000 |       0.0000 |       0.0000 |       0.0000 |       0.0000 |       0.0000 |       0.0000 |       0.0000 |       0.0000 |       0.0000 |       0.0000 |       0.0000 |       0.0000 |       0.0000 |       0.0000 |       0.0000 |       0.0000 |       0.0001 |       0.0001 |       0.0001 |       0.0001 |       0.0001 |       0.0001 |       0.0001 |       0.0001 |       0.0001 |       0.0001 |       0.0001 |       0.0001 |       0.0001 |       0.0001 |       0.0001 |       0.0001 |       0.0001 |       0.0001 |       0.0001 |       0.0001 |
dtlb.wb_rate                                0.0000 |       0.0000 |       0.0000 |       0.0000 |       0.0000 |       0.0000 |       0.0000 |       0.0000 |       0.0000 |       0.0000 |       0.0000 |       0.0000 |       0.0000 |       0.0000 |       0.0000 |       0.0000 |       0.0000 |       0.0000 |       0.0000 |       0.0000 |       0.0000 |       0.0000 |       0.0000 |       0.0000 |       0.0001 |       0.0001 |       0.0001 |       0.0001 |       0.0001 |       0.0001 |       0.0001 |       0.0001 |       0.0001 |       0.0001 |       0.0001 |       0.0001 |       0.0001 |       0.0001 |       0.0001 |       0.0001 |       0.0001 |       0.0001 |       0.0001 |       0.0001 |
dtlb.inv_rate                               0.0000 |       0.0000 |       0.0000 |       0.0000 |       0.0000 |       0.0000 |       0.0000 |       0.0000 |       0.0000 |       0.0000 |       0.0000 |       0.0000 |       0.0000 |       0.0000 |       0.0000 |       0.0000 |       0.0000 |       0.0000 |       0.0000 |       0.0000 |       0.0000 |       0.0000 |       0.0000 |       0.0000 |       0.0000 |       0.0000 |       0.0000 |       0.0000 |       0.0000 |       0.0000 |       0.0000 |       0.0000 |       0.0000 |       0.0000 |       0.0000 |       0.0000 |       0.0000 |       0.0000 |       0.0000 |       0.0000 |       0.0000 |       0.0000 |       0.0000 |       0.0000 |
ld_text_base                            0x00400000 |   0x00400000 |   0x00400000 |   0x00400000 |   0x00400000 |   0x00400000 |   0x00400000 |   0x00400000 |   0x00400000 |   0x00400000 |   0x00400000 |   0x00400000 |   0x00400000 |   0x00400000 |   0x00400000 |   0x00400000 |   0x00400000 |   0x00400000 |   0x00400000 |   0x00400000 |   0x00400000 |   0x00400000 |   0x00400000 |   0x00400000 |   0x00400000 |   0x00400000 |   0x00400000 |   0x00400000 |   0x00400000 |   0x00400000 |   0x00400000 |   0x00400000 |   0x00400000 |   0x00400000 |   0x00400000 |   0x00400000 |   0x00400000 |   0x00400000 |   0x00400000 |   0x00400000 |   0x00400000 |   0x00400000 |   0x00400000 |   0x00400000 |
ld_text_size                                 78496 |        78496 |        78496 |        78496 |        78528 |        78528 |        78528 |        78528 |        78544 |        78544 |        78544 |        78544 |        78560 |        78560 |        78560 |        78560 |        78560 |        78560 |        78560 |        78560 |        78560 |        78560 |        78560 |        78560 |        78560 |        78560 |        78560 |        78560 |        78560 |        78560 |        78560 |        78560 |        78560 |        78560 |        78560 |        78560 |        78560 |        78560 |        78560 |        78560 |        78560 |        78560 |        78560 |        78560 |
ld_data_base                            0x10000000 |   0x10000000 |   0x10000000 |   0x10000000 |   0x10000000 |   0x10000000 |   0x10000000 |   0x10000000 |   0x10000000 |   0x10000000 |   0x10000000 |   0x10000000 |   0x10000000 |   0x10000000 |   0x10000000 |   0x10000000 |   0x10000000 |   0x10000000 |   0x10000000 |   0x10000000 |   0x10000000 |   0x10000000 |   0x10000000 |   0x10000000 |   0x10000000 |   0x10000000 |   0x10000000 |   0x10000000 |   0x10000000 |   0x10000000 |   0x10000000 |   0x10000000 |   0x10000000 |   0x10000000 |   0x10000000 |   0x10000000 |   0x10000000 |   0x10000000 |   0x10000000 |   0x10000000 |   0x10000000 |   0x10000000 |   0x10000000 |   0x10000000 |
ld_data_size                                  8192 |         8192 |         8192 |         8192 |         8192 |         8192 |         8192 |         8192 |         8192 |         8192 |         8192 |         8192 |         8192 |         8192 |         8192 |         8192 |         8192 |         8192 |         8192 |         8192 |         8192 |         8192 |         8192 |         8192 |         8192 |         8192 |         8192 |         8192 |         8192 |         8192 |         8192 |         8192 |         8192 |         8192 |         8192 |         8192 |         8192 |         8192 |         8192 |         8192 |         8192 |         8192 |         8192 |         8192 |
ld_stack_base                           0x7fffc000 |   0x7fffc000 |   0x7fffc000 |   0x7fffc000 |   0x7fffc000 |   0x7fffc000 |   0x7fffc000 |   0x7fffc000 |   0x7fffc000 |   0x7fffc000 |   0x7fffc000 |   0x7fffc000 |   0x7fffc000 |   0x7fffc000 |   0x7fffc000 |   0x7fffc000 |   0x7fffc000 |   0x7fffc000 |   0x7fffc000 |   0x7fffc000 |   0x7fffc000 |   0x7fffc000 |   0x7fffc000 |   0x7fffc000 |   0x7fffc000 |   0x7fffc000 |   0x7fffc000 |   0x7fffc000 |   0x7fffc000 |   0x7fffc000 |   0x7fffc000 |   0x7fffc000 |   0x7fffc000 |   0x7fffc000 |   0x7fffc000 |   0x7fffc000 |   0x7fffc000 |   0x7fffc000 |   0x7fffc000 |   0x7fffc000 |   0x7fffc000 |   0x7fffc000 |   0x7fffc000 |   0x7fffc000 |
ld_stack_size                                16384 |        16384 |        16384 |        16384 |        16384 |        16384 |        16384 |        16384 |        16384 |        16384 |        16384 |        16384 |        16384 |        16384 |        16384 |        16384 |        16384 |        16384 |        16384 |        16384 |        16384 |        16384 |        16384 |        16384 |        16384 |        16384 |        16384 |        16384 |        16384 |        16384 |        16384 |        16384 |        16384 |        16384 |        16384 |        16384 |        16384 |        16384 |        16384 |        16384 |        16384 |        16384 |        16384 |        16384 |
ld_prog_entry                           0x00400140 |   0x00400140 |   0x00400140 |   0x00400140 |   0x00400140 |   0x00400140 |   0x00400140 |   0x00400140 |   0x00400140 |   0x00400140 |   0x00400140 |   0x00400140 |   0x00400140 |   0x00400140 |   0x00400140 |   0x00400140 |   0x00400140 |   0x00400140 |   0x00400140 |   0x00400140 |   0x00400140 |   0x00400140 |   0x00400140 |   0x00400140 |   0x00400140 |   0x00400140 |   0x00400140 |   0x00400140 |   0x00400140 |   0x00400140 |   0x00400140 |   0x00400140 |   0x00400140 |   0x00400140 |   0x00400140 |   0x00400140 |   0x00400140 |   0x00400140 |   0x00400140 |   0x00400140 |   0x00400140 |   0x00400140 |   0x00400140 |   0x00400140 |
ld_environ_base                         0x7fff8000 |   0x7fff8000 |   0x7fff8000 |   0x7fff8000 |   0x7fff8000 |   0x7fff8000 |   0x7fff8000 |   0x7fff8000 |   0x7fff8000 |   0x7fff8000 |   0x7fff8000 |   0x7fff8000 |   0x7fff8000 |   0x7fff8000 |   0x7fff8000 |   0x7fff8000 |   0x7fff8000 |   0x7fff8000 |   0x7fff8000 |   0x7fff8000 |   0x7fff8000 |   0x7fff8000 |   0x7fff8000 |   0x7fff8000 |   0x7fff8000 |   0x7fff8000 |   0x7fff8000 |   0x7fff8000 |   0x7fff8000 |   0x7fff8000 |   0x7fff8000 |   0x7fff8000 |   0x7fff8000 |   0x7fff8000 |   0x7fff8000 |   0x7fff8000 |   0x7fff8000 |   0x7fff8000 |   0x7fff8000 |   0x7fff8000 |   0x7fff8000 |   0x7fff8000 |   0x7fff8000 |   0x7fff8000 |
ld_target_big_endian                             0 |            0 |            0 |            0 |            0 |            0 |            0 |            0 |            0 |            0 |            0 |            0 |            0 |            0 |            0 |            0 |            0 |            0 |            0 |            0 |            0 |            0 |            0 |            0 |            0 |            0 |            0 |            0 |            0 |            0 |            0 |            0 |            0 |            0 |            0 |            0 |            0 |            0 |            0 |            0 |            0 |            0 |            0 |            0 |
mem.page_count                                  32 |           32 |           32 |           32 |           36 |           36 |           36 |           36 |           44 |           44 |           44 |           44 |           60 |           60 |           60 |           60 |           92 |           92 |           92 |           92 |          156 |          156 |          156 |          156 |          284 |          284 |          284 |          284 |          540 |          540 |          540 |          540 |         1052 |         1052 |         1052 |         1052 |         4148 |         4148 |         4148 |         4148 |         8264 |         8264 |         8264 |         8264 |
mem.page_mem                                  128k |         128k |         128k |         128k |         144k |         144k |         144k |         144k |         176k |         176k |         176k |         176k |         240k |         240k |         240k |         240k |         368k |         368k |         368k |         368k |         624k |         624k |         624k |         624k |        1136k |        1136k |        1136k |        1136k |        2160k |        2160k |        2160k |        2160k |        4208k |        4208k |        4208k |        4208k |       16592k |       16592k |       16592k |       16592k |       33056k |       33056k |       33056k |       33056k |
mem.ptab_misses                                 32 |           32 |           32 |           32 |           36 |           36 |           36 |           36 |           44 |           44 |           44 |           44 |           60 |           60 |           60 |           60 |           92 |           92 |           92 |           92 |          156 |          156 |          156 |          156 |          284 |          284 |          284 |          284 |          540 |          540 |          540 |          540 |         1052 |         1052 |         1052 |         1052 |        22562 |        22562 |        22562 |        22562 |        26678 |        26678 |        26678 |        26678 |
mem.ptab_accesses                          2674256 |      2674256 |      2674256 |      2674256 |      5082460 |      5082460 |      5082460 |      5082460 |     10273822 |     10273822 |     10273822 |     10273822 |     21882264 |     21882264 |     21882264 |     21882264 |     45407614 |     45407614 |     45407614 |     45407614 |     94275738 |     94275738 |     94275738 |     94275738 |    199629558 |    199629558 |    199629558 |    199629558 |    423615284 |    423615284 |    423615284 |    423615284 |    883303060 |    883303060 |    883303060 |    883303060 |   2382628558 |   2382628558 |   2382628558 |   2382628558 |   5045963208 |   5045963208 |   5045963208 |   5045963208 |
mem.ptab_miss_rate                          0.0000 |       0.0000 |       0.0000 |       0.0000 |       0.0000 |       0.0000 |       0.0000 |       0.0000 |       0.0000 |       0.0000 |       0.0000 |       0.0000 |       0.0000 |       0.0000 |       0.0000 |       0.0000 |       0.0000 |       0.0000 |       0.0000 |       0.0000 |       0.0000 |       0.0000 |       0.0000 |       0.0000 |       0.0000 |       0.0000 |       0.0000 |       0.0000 |       0.0000 |       0.0000 |       0.0000 |       0.0000 |       0.0000 |       0.0000 |       0.0000 |       0.0000 |       0.0000 |       0.0000 |       0.0000 |       0.0000 |       0.0000 |       0.0000 |       0.0000 |       0.0000 |
-------------------------------------------------------------------------------------------------
sim-bpred                                     4096 |         4096 |         4096 |         4096 |         4096 |         4096 |         4096 |         8192 |         8192 |         8192 |         8192 |         8192 |         8192 |         8192 |        16384 |        16384 |        16384 |        16384 |        16384 |        16384 |        16384 |        32768 |        32768 |        32768 |        32768 |        32768 |        32768 |        32768 |        65536 |        65536 |        65536 |        65536 |        65536 |        65536 |        65536 |       131072 |       131072 |       131072 |       131072 |       131072 |       131072 |       131072 |       262144 |       262144 |       262144 |       262144 |       262144 |       262144 |       262144 |       524288 |       524288 |       524288 |       524288 |       524288 |       524288 |       524288 |      1048576 |      1048576 |      1048576 |      1048576 |      1048576 |      1048576 |      1048576 |      2097152 |      2097152 |      2097152 |      2097152 |      2097152 |      2097152 |      2097152 |      4194304 |      4194304 |      4194304 |      4194304 |      4194304 |      4194304 |      4194304 |
-bpred bimod -bpred:bimod 512
-bpred bimod -bpred:bimod 1024
-bpred bimod -bpred:bimod 2048
-bpred 2lev -bpred:2lev 1 512 10 1
-bpred 2lev -bpred:2lev 1 1024 10 1
-bpred 2lev -bpred:2lev 1 2048 10 1
-bpred 2lev -bpred:2lev 1 4096 10 1
-------------------------------------------------------------------------------------------------
sim_num_insn                                476615 |       476615 |       476615 |       476615 |       476615 |       476615 |       476615 |      1002733 |      1002733 |      1002733 |      1002733 |      1002733 |      1002733 |      1002733 |      2138705 |      2138705 |      2138705 |      2138705 |      2138705 |      2138705 |      2138705 |      4693373 |      4693373 |      4693373 |      4693373 |      4693373 |      4693373 |      4693373 |      9858543 |      9858543 |      9858543 |      9858543 |      9858543 |      9858543 |      9858543 |     20589951 |     20589951 |     20589951 |     20589951 |     20589951 |     20589951 |     20589951 |     43778487 |     43778487 |     43778487 |     43778487 |     43778487 |     43778487 |     43778487 |     93161529 |     93161529 |     93161529 |     93161529 |     93161529 |     93161529 |     93161529 |    194442614 |    194442614 |    194442614 |    194442614 |    194442614 |    194442614 |    194442614 |    527241326 |    527241326 |    527241326 |    527241326 |    527241326 |    527241326 |    527241326 |   1119566266 |   1119566266 |   1119566266 |   1119566266 |   1119566266 |   1119566266 |   1119566266 |
sim_num_refs                                124622 |       124622 |       124622 |       124622 |       124622 |       124622 |       124622 |       260008 |       260008 |       260008 |       260008 |       260008 |       260008 |       260008 |       550929 |       550929 |       550929 |       550929 |       550929 |       550929 |       550929 |      1180230 |      1180230 |      1180230 |      1180230 |      1180230 |      1180230 |      1180230 |      2481493 |      2481493 |      2481493 |      2481493 |      2481493 |      2481493 |      2481493 |      5190595 |      5190595 |      5190595 |      5190595 |      5190595 |      5190595 |      5190595 |     10966145 |     10966145 |     10966145 |     10966145 |     10966145 |     10966145 |     10966145 |     23144348 |     23144348 |     23144348 |     23144348 |     23144348 |     23144348 |     23144348 |     48328914 |     48328914 |     48328914 |     48328914 |     48328914 |     48328914 |     48328914 |    128199934 |    128199934 |    128199934 |    128199934 |    128199934 |    128199934 |    128199934 |    266828771 |    266828771 |    266828771 |    266828771 |    266828771 |    266828771 |    266828771 |
sim_elapsed_time                                 1 |            1 |            1 |            1 |            1 |            1 |            1 |            1 |            1 |            1 |            1 |            1 |            1 |            1 |            1 |            1 |            1 |            1 |            1 |            1 |            1 |            1 |            1 |            1 |            1 |            1 |            1 |            1 |            1 |            1 |            1 |            1 |            1 |            1 |            2 |            2 |            3 |            2 |            3 |            2 |            3 |            3 |            5 |            6 |            5 |            5 |            6 |            5 |            5 |           11 |           12 |           11 |           11 |           12 |           11 |           11 |           24 |           23 |           23 |           24 |           24 |           24 |           24 |           66 |           65 |           65 |           67 |           66 |           67 |           66 |          139 |          140 |          140 |          141 |          141 |          141 |          142 |
sim_inst_rate                          476615.0000 |  476615.0000 |  476615.0000 |  476615.0000 |  476615.0000 |  476615.0000 |  476615.0000 | 1002733.0000 | 1002733.0000 | 1002733.0000 | 1002733.0000 | 1002733.0000 | 1002733.0000 | 1002733.0000 | 2138705.0000 | 2138705.0000 | 2138705.0000 | 2138705.0000 | 2138705.0000 | 2138705.0000 | 2138705.0000 | 4693373.0000 | 4693373.0000 | 4693373.0000 | 4693373.0000 | 4693373.0000 | 4693373.0000 | 4693373.0000 | 9858543.0000 | 9858543.0000 | 9858543.0000 | 9858543.0000 | 9858543.0000 | 9858543.0000 | 4929271.5000 |10294975.5000 | 6863317.0000 |10294975.5000 | 6863317.0000 |10294975.5000 | 6863317.0000 | 6863317.0000 | 8755697.4000 | 7296414.5000 | 8755697.4000 | 8755697.4000 | 7296414.5000 | 8755697.4000 | 8755697.4000 | 8469229.9091 | 7763460.7500 | 8469229.9091 | 8469229.9091 | 7763460.7500 | 8469229.9091 | 8469229.9091 | 8101775.5833 | 8454026.6957 | 8454026.6957 | 8101775.5833 | 8101775.5833 | 8101775.5833 | 8101775.5833 | 7988504.9394 | 8111405.0154 | 8111405.0154 | 7869273.5224 | 7988504.9394 | 7869273.5224 | 7988504.9394 | 8054433.5683 | 7996901.9000 | 7996901.9000 | 7940186.2837 | 7940186.2837 | 7940186.2837 | 7884269.4789 |
sim_num_branches                             78151 |        78151 |        78151 |        78151 |        78151 |        78151 |        78151 |       165740 |       165740 |       165740 |       165740 |       165740 |       165740 |       165740 |       355861 |       355861 |       355861 |       355861 |       355861 |       355861 |       355861 |       784215 |       784215 |       784215 |       784215 |       784215 |       784215 |       784215 |      1656245 |      1656245 |      1656245 |      1656245 |      1656245 |      1656245 |      1656245 |      3477613 |      3477613 |      3477613 |      3477613 |      3477613 |      3477613 |      3477613 |      7415106 |      7415106 |      7415106 |      7415106 |      7415106 |      7415106 |      7415106 |     15820389 |     15820389 |     15820389 |     15820389 |     15820389 |     15820389 |     15820389 |     33146638 |     33146638 |     33146638 |     33146638 |     33146638 |     33146638 |     33146638 |     83510929 |     83510929 |     83510929 |     83510929 |     83510929 |     83510929 |     83510929 |    181809042 |    181809042 |    181809042 |    181809042 |    181809042 |    181809042 |    181809042 |
sim_IPB                                     6.0986 |       6.0986 |       6.0986 |       6.0986 |       6.0986 |       6.0986 |       6.0986 |       6.0500 |       6.0500 |       6.0500 |       6.0500 |       6.0500 |       6.0500 |       6.0500 |       6.0099 |       6.0099 |       6.0099 |       6.0099 |       6.0099 |       6.0099 |       6.0099 |       5.9848 |       5.9848 |       5.9848 |       5.9848 |       5.9848 |       5.9848 |       5.9848 |       5.9523 |       5.9523 |       5.9523 |       5.9523 |       5.9523 |       5.9523 |       5.9523 |       5.9207 |       5.9207 |       5.9207 |       5.9207 |       5.9207 |       5.9207 |       5.9207 |       5.9040 |       5.9040 |       5.9040 |       5.9040 |       5.9040 |       5.9040 |       5.9040 |       5.8887 |       5.8887 |       5.8887 |       5.8887 |       5.8887 |       5.8887 |       5.8887 |       5.8661 |       5.8661 |       5.8661 |       5.8661 |       5.8661 |       5.8661 |       5.8661 |       6.3134 |       6.3134 |       6.3134 |       6.3134 |       6.3134 |       6.3134 |       6.3134 |       6.1579 |       6.1579 |       6.1579 |       6.1579 |       6.1579 |       6.1579 |       6.1579 |
bpred_bimod.lookups                          78151 |        78151 |        78151 |xxxxxxxxxxxxx |xxxxxxxxxxxxx |xxxxxxxxxxxxx |xxxxxxxxxxxxx |       165740 |       165740 |       165740 |xxxxxxxxxxxxx |xxxxxxxxxxxxx |xxxxxxxxxxxxx |xxxxxxxxxxxxx |       355861 |       355861 |       355861 |xxxxxxxxxxxxx |xxxxxxxxxxxxx |xxxxxxxxxxxxx |xxxxxxxxxxxxx |       784215 |       784215 |       784215 |xxxxxxxxxxxxx |xxxxxxxxxxxxx |xxxxxxxxxxxxx |xxxxxxxxxxxxx |      1656245 |      1656245 |      1656245 |xxxxxxxxxxxxx |xxxxxxxxxxxxx |xxxxxxxxxxxxx |xxxxxxxxxxxxx |      3477613 |      3477613 |      3477613 |xxxxxxxxxxxxx |xxxxxxxxxxxxx |xxxxxxxxxxxxx |xxxxxxxxxxxxx |      7415106 |      7415106 |      7415106 |xxxxxxxxxxxxx |xxxxxxxxxxxxx |xxxxxxxxxxxxx |xxxxxxxxxxxxx |     15820389 |     15820389 |     15820389 |xxxxxxxxxxxxx |xxxxxxxxxxxxx |xxxxxxxxxxxxx |xxxxxxxxxxxxx |     33146638 |     33146638 |     33146638 |xxxxxxxxxxxxx |xxxxxxxxxxxxx |xxxxxxxxxxxxx |xxxxxxxxxxxxx |     83510929 |     83510929 |     83510929 |xxxxxxxxxxxxx |xxxxxxxxxxxxx |xxxxxxxxxxxxx |xxxxxxxxxxxxx |    181809042 |    181809042 |    181809042 |
bpred_bimod.updates                          78151 |        78151 |        78151 |xxxxxxxxxxxxx |xxxxxxxxxxxxx |xxxxxxxxxxxxx |xxxxxxxxxxxxx |       165740 |       165740 |       165740 |xxxxxxxxxxxxx |xxxxxxxxxxxxx |xxxxxxxxxxxxx |xxxxxxxxxxxxx |       355861 |       355861 |       355861 |xxxxxxxxxxxxx |xxxxxxxxxxxxx |xxxxxxxxxxxxx |xxxxxxxxxxxxx |       784215 |       784215 |       784215 |xxxxxxxxxxxxx |xxxxxxxxxxxxx |xxxxxxxxxxxxx |xxxxxxxxxxxxx |      1656245 |      1656245 |      1656245 |xxxxxxxxxxxxx |xxxxxxxxxxxxx |xxxxxxxxxxxxx |xxxxxxxxxxxxx |      3477613 |      3477613 |      3477613 |xxxxxxxxxxxxx |xxxxxxxxxxxxx |xxxxxxxxxxxxx |xxxxxxxxxxxxx |      7415106 |      7415106 |      7415106 |xxxxxxxxxxxxx |xxxxxxxxxxxxx |xxxxxxxxxxxxx |xxxxxxxxxxxxx |     15820389 |     15820389 |     15820389 |xxxxxxxxxxxxx |xxxxxxxxxxxxx |xxxxxxxxxxxxx |xxxxxxxxxxxxx |     33146638 |     33146638 |     33146638 |xxxxxxxxxxxxx |xxxxxxxxxxxxx |xxxxxxxxxxxxx |xxxxxxxxxxxxx |     83510929 |     83510929 |     83510929 |xxxxxxxxxxxxx |xxxxxxxxxxxxx |xxxxxxxxxxxxx |xxxxxxxxxxxxx |    181809042 |    181809042 |    181809042 |
bpred_bimod.addr_hits                        56998 |        56998 |        56999 |xxxxxxxxxxxxx |xxxxxxxxxxxxx |xxxxxxxxxxxxx |xxxxxxxxxxxxx |       119686 |       119689 |       119689 |xxxxxxxxxxxxx |xxxxxxxxxxxxx |xxxxxxxxxxxxx |xxxxxxxxxxxxx |       256850 |       256853 |       256854 |xxxxxxxxxxxxx |xxxxxxxxxxxxx |xxxxxxxxxxxxx |xxxxxxxxxxxxx |       576458 |       576459 |       576459 |xxxxxxxxxxxxx |xxxxxxxxxxxxx |xxxxxxxxxxxxx |xxxxxxxxxxxxx |      1209830 |      1209829 |      1209829 |xxxxxxxxxxxxx |xxxxxxxxxxxxx |xxxxxxxxxxxxx |xxxxxxxxxxxxx |      2511349 |      2511348 |      2511348 |xxxxxxxxxxxxx |xxxxxxxxxxxxx |xxxxxxxxxxxxx |xxxxxxxxxxxxx |      5373179 |      5373178 |      5373178 |xxxxxxxxxxxxx |xxxxxxxxxxxxx |xxxxxxxxxxxxx |xxxxxxxxxxxxx |     11588594 |     11588593 |     11588593 |xxxxxxxxxxxxx |xxxxxxxxxxxxx |xxxxxxxxxxxxx |xxxxxxxxxxxxx |     24127278 |     24127279 |     24127279 |xxxxxxxxxxxxx |xxxxxxxxxxxxx |xxxxxxxxxxxxx |xxxxxxxxxxxxx |     62744845 |     62744868 |     62744871 |xxxxxxxxxxxxx |xxxxxxxxxxxxx |xxxxxxxxxxxxx |xxxxxxxxxxxxx |    137979690 |    137979738 |    137979741 |
bpred_bimod.dir_hits                         57114 |        57112 |        57113 |xxxxxxxxxxxxx |xxxxxxxxxxxxx |xxxxxxxxxxxxx |xxxxxxxxxxxxx |       119798 |       119800 |       119799 |xxxxxxxxxxxxx |xxxxxxxxxxxxx |xxxxxxxxxxxxx |xxxxxxxxxxxxx |       256969 |       256970 |       256970 |xxxxxxxxxxxxx |xxxxxxxxxxxxx |xxxxxxxxxxxxx |xxxxxxxxxxxxx |       576572 |       576571 |       576571 |xxxxxxxxxxxxx |xxxxxxxxxxxxx |xxxxxxxxxxxxx |xxxxxxxxxxxxx |      1209943 |      1209940 |      1209940 |xxxxxxxxxxxxx |xxxxxxxxxxxxx |xxxxxxxxxxxxx |xxxxxxxxxxxxx |      2511465 |      2511462 |      2511462 |xxxxxxxxxxxxx |xxxxxxxxxxxxx |xxxxxxxxxxxxx |xxxxxxxxxxxxx |      5373295 |      5373292 |      5373292 |xxxxxxxxxxxxx |xxxxxxxxxxxxx |xxxxxxxxxxxxx |xxxxxxxxxxxxx |     11588709 |     11588706 |     11588706 |xxxxxxxxxxxxx |xxxxxxxxxxxxx |xxxxxxxxxxxxx |xxxxxxxxxxxxx |     24127392 |     24127391 |     24127391 |xxxxxxxxxxxxx |xxxxxxxxxxxxx |xxxxxxxxxxxxx |xxxxxxxxxxxxx |     62745002 |     62745025 |     62745029 |xxxxxxxxxxxxx |xxxxxxxxxxxxx |xxxxxxxxxxxxx |xxxxxxxxxxxxx |    137979849 |    137979895 |    137979899 |
bpred_bimod.misses                           21037 |        21039 |        21038 |xxxxxxxxxxxxx |xxxxxxxxxxxxx |xxxxxxxxxxxxx |xxxxxxxxxxxxx |        45942 |        45940 |        45941 |xxxxxxxxxxxxx |xxxxxxxxxxxxx |xxxxxxxxxxxxx |xxxxxxxxxxxxx |        98892 |        98891 |        98891 |xxxxxxxxxxxxx |xxxxxxxxxxxxx |xxxxxxxxxxxxx |xxxxxxxxxxxxx |       207643 |       207644 |       207644 |xxxxxxxxxxxxx |xxxxxxxxxxxxx |xxxxxxxxxxxxx |xxxxxxxxxxxxx |       446302 |       446305 |       446305 |xxxxxxxxxxxxx |xxxxxxxxxxxxx |xxxxxxxxxxxxx |xxxxxxxxxxxxx |       966148 |       966151 |       966151 |xxxxxxxxxxxxx |xxxxxxxxxxxxx |xxxxxxxxxxxxx |xxxxxxxxxxxxx |      2041811 |      2041814 |      2041814 |xxxxxxxxxxxxx |xxxxxxxxxxxxx |xxxxxxxxxxxxx |xxxxxxxxxxxxx |      4231680 |      4231683 |      4231683 |xxxxxxxxxxxxx |xxxxxxxxxxxxx |xxxxxxxxxxxxx |xxxxxxxxxxxxx |      9019246 |      9019247 |      9019247 |xxxxxxxxxxxxx |xxxxxxxxxxxxx |xxxxxxxxxxxxx |xxxxxxxxxxxxx |     20765927 |     20765904 |     20765900 |xxxxxxxxxxxxx |xxxxxxxxxxxxx |xxxxxxxxxxxxx |xxxxxxxxxxxxx |     43829193 |     43829147 |     43829143 |
bpred_bimod.jr_hits                             65 |           65 |           65 |xxxxxxxxxxxxx |xxxxxxxxxxxxx |xxxxxxxxxxxxx |xxxxxxxxxxxxx |           65 |           65 |           65 |xxxxxxxxxxxxx |xxxxxxxxxxxxx |xxxxxxxxxxxxx |xxxxxxxxxxxxx |           65 |           65 |           65 |xxxxxxxxxxxxx |xxxxxxxxxxxxx |xxxxxxxxxxxxx |xxxxxxxxxxxxx |           65 |           65 |           65 |xxxxxxxxxxxxx |xxxxxxxxxxxxx |xxxxxxxxxxxxx |xxxxxxxxxxxxx |           65 |           65 |           65 |xxxxxxxxxxxxx |xxxxxxxxxxxxx |xxxxxxxxxxxxx |xxxxxxxxxxxxx |           65 |           65 |           65 |xxxxxxxxxxxxx |xxxxxxxxxxxxx |xxxxxxxxxxxxx |xxxxxxxxxxxxx |           65 |           65 |           65 |xxxxxxxxxxxxx |xxxxxxxxxxxxx |xxxxxxxxxxxxx |xxxxxxxxxxxxx |           65 |           65 |           65 |xxxxxxxxxxxxx |xxxxxxxxxxxxx |xxxxxxxxxxxxx |xxxxxxxxxxxxx |           65 |           65 |           65 |xxxxxxxxxxxxx |xxxxxxxxxxxxx |xxxxxxxxxxxxx |xxxxxxxxxxxxx |          110 |          110 |          110 |xxxxxxxxxxxxx |xxxxxxxxxxxxx |xxxxxxxxxxxxx |xxxxxxxxxxxxx |          122 |          122 |          122 |
bpred_bimod.jr_seen                             65 |           65 |           65 |xxxxxxxxxxxxx |xxxxxxxxxxxxx |xxxxxxxxxxxxx |xxxxxxxxxxxxx |           65 |           65 |           65 |xxxxxxxxxxxxx |xxxxxxxxxxxxx |xxxxxxxxxxxxx |xxxxxxxxxxxxx |           65 |           65 |           65 |xxxxxxxxxxxxx |xxxxxxxxxxxxx |xxxxxxxxxxxxx |xxxxxxxxxxxxx |           65 |           65 |           65 |xxxxxxxxxxxxx |xxxxxxxxxxxxx |xxxxxxxxxxxxx |xxxxxxxxxxxxx |           65 |           65 |           65 |xxxxxxxxxxxxx |xxxxxxxxxxxxx |xxxxxxxxxxxxx |xxxxxxxxxxxxx |           65 |           65 |           65 |xxxxxxxxxxxxx |xxxxxxxxxxxxx |xxxxxxxxxxxxx |xxxxxxxxxxxxx |           65 |           65 |           65 |xxxxxxxxxxxxx |xxxxxxxxxxxxx |xxxxxxxxxxxxx |xxxxxxxxxxxxx |           65 |           65 |           65 |xxxxxxxxxxxxx |xxxxxxxxxxxxx |xxxxxxxxxxxxx |xxxxxxxxxxxxx |           65 |           65 |           65 |xxxxxxxxxxxxx |xxxxxxxxxxxxx |xxxxxxxxxxxxx |xxxxxxxxxxxxx |          111 |          111 |          111 |xxxxxxxxxxxxx |xxxxxxxxxxxxx |xxxxxxxxxxxxx |xxxxxxxxxxxxx |          123 |          123 |          123 |
bpred_bimod.jr_non_ras_hits.PP                   0 |            0 |            0 |xxxxxxxxxxxxx |xxxxxxxxxxxxx |xxxxxxxxxxxxx |xxxxxxxxxxxxx |            0 |            0 |            0 |xxxxxxxxxxxxx |xxxxxxxxxxxxx |xxxxxxxxxxxxx |xxxxxxxxxxxxx |            0 |            0 |            0 |xxxxxxxxxxxxx |xxxxxxxxxxxxx |xxxxxxxxxxxxx |xxxxxxxxxxxxx |            0 |            0 |            0 |xxxxxxxxxxxxx |xxxxxxxxxxxxx |xxxxxxxxxxxxx |xxxxxxxxxxxxx |            0 |            0 |            0 |xxxxxxxxxxxxx |xxxxxxxxxxxxx |xxxxxxxxxxxxx |xxxxxxxxxxxxx |            0 |            0 |            0 |xxxxxxxxxxxxx |xxxxxxxxxxxxx |xxxxxxxxxxxxx |xxxxxxxxxxxxx |            0 |            0 |            0 |xxxxxxxxxxxxx |xxxxxxxxxxxxx |xxxxxxxxxxxxx |xxxxxxxxxxxxx |            0 |            0 |            0 |xxxxxxxxxxxxx |xxxxxxxxxxxxx |xxxxxxxxxxxxx |xxxxxxxxxxxxx |            0 |            0 |            0 |xxxxxxxxxxxxx |xxxxxxxxxxxxx |xxxxxxxxxxxxx |xxxxxxxxxxxxx |            0 |            0 |            0 |xxxxxxxxxxxxx |xxxxxxxxxxxxx |xxxxxxxxxxxxx |xxxxxxxxxxxxx |            0 |            0 |            0 |
bpred_bimod.jr_non_ras_seen.PP                   0 |            0 |            0 |xxxxxxxxxxxxx |xxxxxxxxxxxxx |xxxxxxxxxxxxx |xxxxxxxxxxxxx |            0 |            0 |            0 |xxxxxxxxxxxxx |xxxxxxxxxxxxx |xxxxxxxxxxxxx |xxxxxxxxxxxxx |            0 |            0 |            0 |xxxxxxxxxxxxx |xxxxxxxxxxxxx |xxxxxxxxxxxxx |xxxxxxxxxxxxx |            0 |            0 |            0 |xxxxxxxxxxxxx |xxxxxxxxxxxxx |xxxxxxxxxxxxx |xxxxxxxxxxxxx |            0 |            0 |            0 |xxxxxxxxxxxxx |xxxxxxxxxxxxx |xxxxxxxxxxxxx |xxxxxxxxxxxxx |            0 |            0 |            0 |xxxxxxxxxxxxx |xxxxxxxxxxxxx |xxxxxxxxxxxxx |xxxxxxxxxxxxx |            0 |            0 |            0 |xxxxxxxxxxxxx |xxxxxxxxxxxxx |xxxxxxxxxxxxx |xxxxxxxxxxxxx |            0 |            0 |            0 |xxxxxxxxxxxxx |xxxxxxxxxxxxx |xxxxxxxxxxxxx |xxxxxxxxxxxxx |            0 |            0 |            0 |xxxxxxxxxxxxx |xxxxxxxxxxxxx |xxxxxxxxxxxxx |xxxxxxxxxxxxx |            1 |            1 |            1 |xxxxxxxxxxxxx |xxxxxxxxxxxxx |xxxxxxxxxxxxx |xxxxxxxxxxxxx |            1 |            1 |            1 |
bpred_bimod.bpred_addr_rate                 0.7293 |       0.7293 |       0.7293 |xxxxxxxxxxxxx |xxxxxxxxxxxxx |xxxxxxxxxxxxx |xxxxxxxxxxxxx |       0.7221 |       0.7221 |       0.7221 |xxxxxxxxxxxxx |xxxxxxxxxxxxx |xxxxxxxxxxxxx |xxxxxxxxxxxxx |       0.7218 |       0.7218 |       0.7218 |xxxxxxxxxxxxx |xxxxxxxxxxxxx |xxxxxxxxxxxxx |xxxxxxxxxxxxx |       0.7351 |       0.7351 |       0.7351 |xxxxxxxxxxxxx |xxxxxxxxxxxxx |xxxxxxxxxxxxx |xxxxxxxxxxxxx |       0.7305 |       0.7305 |       0.7305 |xxxxxxxxxxxxx |xxxxxxxxxxxxx |xxxxxxxxxxxxx |xxxxxxxxxxxxx |       0.7221 |       0.7221 |       0.7221 |xxxxxxxxxxxxx |xxxxxxxxxxxxx |xxxxxxxxxxxxx |xxxxxxxxxxxxx |       0.7246 |       0.7246 |       0.7246 |xxxxxxxxxxxxx |xxxxxxxxxxxxx |xxxxxxxxxxxxx |xxxxxxxxxxxxx |       0.7325 |       0.7325 |       0.7325 |xxxxxxxxxxxxx |xxxxxxxxxxxxx |xxxxxxxxxxxxx |xxxxxxxxxxxxx |       0.7279 |       0.7279 |       0.7279 |xxxxxxxxxxxxx |xxxxxxxxxxxxx |xxxxxxxxxxxxx |xxxxxxxxxxxxx |       0.7513 |       0.7513 |       0.7513 |xxxxxxxxxxxxx |xxxxxxxxxxxxx |xxxxxxxxxxxxx |xxxxxxxxxxxxx |       0.7589 |       0.7589 |       0.7589 |
bpred_bimod.bpred_dir_rate                  0.7308 |       0.7308 |       0.7308 |xxxxxxxxxxxxx |xxxxxxxxxxxxx |xxxxxxxxxxxxx |xxxxxxxxxxxxx |       0.7228 |       0.7228 |       0.7228 |xxxxxxxxxxxxx |xxxxxxxxxxxxx |xxxxxxxxxxxxx |xxxxxxxxxxxxx |       0.7221 |       0.7221 |       0.7221 |xxxxxxxxxxxxx |xxxxxxxxxxxxx |xxxxxxxxxxxxx |xxxxxxxxxxxxx |       0.7352 |       0.7352 |       0.7352 |xxxxxxxxxxxxx |xxxxxxxxxxxxx |xxxxxxxxxxxxx |xxxxxxxxxxxxx |       0.7305 |       0.7305 |       0.7305 |xxxxxxxxxxxxx |xxxxxxxxxxxxx |xxxxxxxxxxxxx |xxxxxxxxxxxxx |       0.7222 |       0.7222 |       0.7222 |xxxxxxxxxxxxx |xxxxxxxxxxxxx |xxxxxxxxxxxxx |xxxxxxxxxxxxx |       0.7246 |       0.7246 |       0.7246 |xxxxxxxxxxxxx |xxxxxxxxxxxxx |xxxxxxxxxxxxx |xxxxxxxxxxxxx |       0.7325 |       0.7325 |       0.7325 |xxxxxxxxxxxxx |xxxxxxxxxxxxx |xxxxxxxxxxxxx |xxxxxxxxxxxxx |       0.7279 |       0.7279 |       0.7279 |xxxxxxxxxxxxx |xxxxxxxxxxxxx |xxxxxxxxxxxxx |xxxxxxxxxxxxx |       0.7513 |       0.7513 |       0.7513 |xxxxxxxxxxxxx |xxxxxxxxxxxxx |xxxxxxxxxxxxx |xxxxxxxxxxxxx |       0.7589 |       0.7589 |       0.7589 |
bpred_bimod.bpred_jr_rate                   1.0000 |       1.0000 |       1.0000 |xxxxxxxxxxxxx |xxxxxxxxxxxxx |xxxxxxxxxxxxx |xxxxxxxxxxxxx |       1.0000 |       1.0000 |       1.0000 |xxxxxxxxxxxxx |xxxxxxxxxxxxx |xxxxxxxxxxxxx |xxxxxxxxxxxxx |       1.0000 |       1.0000 |       1.0000 |xxxxxxxxxxxxx |xxxxxxxxxxxxx |xxxxxxxxxxxxx |xxxxxxxxxxxxx |       1.0000 |       1.0000 |       1.0000 |xxxxxxxxxxxxx |xxxxxxxxxxxxx |xxxxxxxxxxxxx |xxxxxxxxxxxxx |       1.0000 |       1.0000 |       1.0000 |xxxxxxxxxxxxx |xxxxxxxxxxxxx |xxxxxxxxxxxxx |xxxxxxxxxxxxx |       1.0000 |       1.0000 |       1.0000 |xxxxxxxxxxxxx |xxxxxxxxxxxxx |xxxxxxxxxxxxx |xxxxxxxxxxxxx |       1.0000 |       1.0000 |       1.0000 |xxxxxxxxxxxxx |xxxxxxxxxxxxx |xxxxxxxxxxxxx |xxxxxxxxxxxxx |       1.0000 |       1.0000 |       1.0000 |xxxxxxxxxxxxx |xxxxxxxxxxxxx |xxxxxxxxxxxxx |xxxxxxxxxxxxx |       1.0000 |       1.0000 |       1.0000 |xxxxxxxxxxxxx |xxxxxxxxxxxxx |xxxxxxxxxxxxx |xxxxxxxxxxxxx |       0.9910 |       0.9910 |       0.9910 |xxxxxxxxxxxxx |xxxxxxxxxxxxx |xxxxxxxxxxxxx |xxxxxxxxxxxxx |       0.9919 |       0.9919 |       0.9919 |
bpred_bimod.bpred_jr_non_ras_rate.PP       <error: |      <error: |      <error: |xxxxxxxxxxxxx |xxxxxxxxxxxxx |xxxxxxxxxxxxx |xxxxxxxxxxxxx |      <error: |      <error: |      <error: |xxxxxxxxxxxxx |xxxxxxxxxxxxx |xxxxxxxxxxxxx |xxxxxxxxxxxxx |      <error: |      <error: |      <error: |xxxxxxxxxxxxx |xxxxxxxxxxxxx |xxxxxxxxxxxxx |xxxxxxxxxxxxx |      <error: |      <error: |      <error: |xxxxxxxxxxxxx |xxxxxxxxxxxxx |xxxxxxxxxxxxx |xxxxxxxxxxxxx |      <error: |      <error: |      <error: |xxxxxxxxxxxxx |xxxxxxxxxxxxx |xxxxxxxxxxxxx |xxxxxxxxxxxxx |      <error: |      <error: |      <error: |xxxxxxxxxxxxx |xxxxxxxxxxxxx |xxxxxxxxxxxxx |xxxxxxxxxxxxx |      <error: |      <error: |      <error: |xxxxxxxxxxxxx |xxxxxxxxxxxxx |xxxxxxxxxxxxx |xxxxxxxxxxxxx |      <error: |      <error: |      <error: |xxxxxxxxxxxxx |xxxxxxxxxxxxx |xxxxxxxxxxxxx |xxxxxxxxxxxxx |      <error: |      <error: |      <error: |xxxxxxxxxxxxx |xxxxxxxxxxxxx |xxxxxxxxxxxxx |xxxxxxxxxxxxx |       0.0000 |       0.0000 |       0.0000 |xxxxxxxxxxxxx |xxxxxxxxxxxxx |xxxxxxxxxxxxx |xxxxxxxxxxxxx |       0.0000 |       0.0000 |       0.0000 |
bpred_bimod.retstack_pushes                     67 |           67 |           67 |xxxxxxxxxxxxx |xxxxxxxxxxxxx |xxxxxxxxxxxxx |xxxxxxxxxxxxx |           67 |           67 |           67 |xxxxxxxxxxxxx |xxxxxxxxxxxxx |xxxxxxxxxxxxx |xxxxxxxxxxxxx |           67 |           67 |           67 |xxxxxxxxxxxxx |xxxxxxxxxxxxx |xxxxxxxxxxxxx |xxxxxxxxxxxxx |           67 |           67 |           67 |xxxxxxxxxxxxx |xxxxxxxxxxxxx |xxxxxxxxxxxxx |xxxxxxxxxxxxx |           67 |           67 |           67 |xxxxxxxxxxxxx |xxxxxxxxxxxxx |xxxxxxxxxxxxx |xxxxxxxxxxxxx |           67 |           67 |           67 |xxxxxxxxxxxxx |xxxxxxxxxxxxx |xxxxxxxxxxxxx |xxxxxxxxxxxxx |           67 |           67 |           67 |xxxxxxxxxxxxx |xxxxxxxxxxxxx |xxxxxxxxxxxxx |xxxxxxxxxxxxx |           67 |           67 |           67 |xxxxxxxxxxxxx |xxxxxxxxxxxxx |xxxxxxxxxxxxx |xxxxxxxxxxxxx |           67 |           67 |           67 |xxxxxxxxxxxxx |xxxxxxxxxxxxx |xxxxxxxxxxxxx |xxxxxxxxxxxxx |          112 |          112 |          112 |xxxxxxxxxxxxx |xxxxxxxxxxxxx |xxxxxxxxxxxxx |xxxxxxxxxxxxx |          124 |          124 |          124 |
bpred_bimod.retstack_pops                       65 |           65 |           65 |xxxxxxxxxxxxx |xxxxxxxxxxxxx |xxxxxxxxxxxxx |xxxxxxxxxxxxx |           65 |           65 |           65 |xxxxxxxxxxxxx |xxxxxxxxxxxxx |xxxxxxxxxxxxx |xxxxxxxxxxxxx |           65 |           65 |           65 |xxxxxxxxxxxxx |xxxxxxxxxxxxx |xxxxxxxxxxxxx |xxxxxxxxxxxxx |           65 |           65 |           65 |xxxxxxxxxxxxx |xxxxxxxxxxxxx |xxxxxxxxxxxxx |xxxxxxxxxxxxx |           65 |           65 |           65 |xxxxxxxxxxxxx |xxxxxxxxxxxxx |xxxxxxxxxxxxx |xxxxxxxxxxxxx |           65 |           65 |           65 |xxxxxxxxxxxxx |xxxxxxxxxxxxx |xxxxxxxxxxxxx |xxxxxxxxxxxxx |           65 |           65 |           65 |xxxxxxxxxxxxx |xxxxxxxxxxxxx |xxxxxxxxxxxxx |xxxxxxxxxxxxx |           65 |           65 |           65 |xxxxxxxxxxxxx |xxxxxxxxxxxxx |xxxxxxxxxxxxx |xxxxxxxxxxxxx |           65 |           65 |           65 |xxxxxxxxxxxxx |xxxxxxxxxxxxx |xxxxxxxxxxxxx |xxxxxxxxxxxxx |          110 |          110 |          110 |xxxxxxxxxxxxx |xxxxxxxxxxxxx |xxxxxxxxxxxxx |xxxxxxxxxxxxx |          122 |          122 |          122 |
bpred_bimod.used_ras.PP                         65 |           65 |           65 |xxxxxxxxxxxxx |xxxxxxxxxxxxx |xxxxxxxxxxxxx |xxxxxxxxxxxxx |           65 |           65 |           65 |xxxxxxxxxxxxx |xxxxxxxxxxxxx |xxxxxxxxxxxxx |xxxxxxxxxxxxx |           65 |           65 |           65 |xxxxxxxxxxxxx |xxxxxxxxxxxxx |xxxxxxxxxxxxx |xxxxxxxxxxxxx |           65 |           65 |           65 |xxxxxxxxxxxxx |xxxxxxxxxxxxx |xxxxxxxxxxxxx |xxxxxxxxxxxxx |           65 |           65 |           65 |xxxxxxxxxxxxx |xxxxxxxxxxxxx |xxxxxxxxxxxxx |xxxxxxxxxxxxx |           65 |           65 |           65 |xxxxxxxxxxxxx |xxxxxxxxxxxxx |xxxxxxxxxxxxx |xxxxxxxxxxxxx |           65 |           65 |           65 |xxxxxxxxxxxxx |xxxxxxxxxxxxx |xxxxxxxxxxxxx |xxxxxxxxxxxxx |           65 |           65 |           65 |xxxxxxxxxxxxx |xxxxxxxxxxxxx |xxxxxxxxxxxxx |xxxxxxxxxxxxx |           65 |           65 |           65 |xxxxxxxxxxxxx |xxxxxxxxxxxxx |xxxxxxxxxxxxx |xxxxxxxxxxxxx |          110 |          110 |          110 |xxxxxxxxxxxxx |xxxxxxxxxxxxx |xxxxxxxxxxxxx |xxxxxxxxxxxxx |          122 |          122 |          122 |
bpred_bimod.ras_hits.PP                         65 |           65 |           65 |xxxxxxxxxxxxx |xxxxxxxxxxxxx |xxxxxxxxxxxxx |xxxxxxxxxxxxx |           65 |           65 |           65 |xxxxxxxxxxxxx |xxxxxxxxxxxxx |xxxxxxxxxxxxx |xxxxxxxxxxxxx |           65 |           65 |           65 |xxxxxxxxxxxxx |xxxxxxxxxxxxx |xxxxxxxxxxxxx |xxxxxxxxxxxxx |           65 |           65 |           65 |xxxxxxxxxxxxx |xxxxxxxxxxxxx |xxxxxxxxxxxxx |xxxxxxxxxxxxx |           65 |           65 |           65 |xxxxxxxxxxxxx |xxxxxxxxxxxxx |xxxxxxxxxxxxx |xxxxxxxxxxxxx |           65 |           65 |           65 |xxxxxxxxxxxxx |xxxxxxxxxxxxx |xxxxxxxxxxxxx |xxxxxxxxxxxxx |           65 |           65 |           65 |xxxxxxxxxxxxx |xxxxxxxxxxxxx |xxxxxxxxxxxxx |xxxxxxxxxxxxx |           65 |           65 |           65 |xxxxxxxxxxxxx |xxxxxxxxxxxxx |xxxxxxxxxxxxx |xxxxxxxxxxxxx |           65 |           65 |           65 |xxxxxxxxxxxxx |xxxxxxxxxxxxx |xxxxxxxxxxxxx |xxxxxxxxxxxxx |          110 |          110 |          110 |xxxxxxxxxxxxx |xxxxxxxxxxxxx |xxxxxxxxxxxxx |xxxxxxxxxxxxx |          122 |          122 |          122 |
bpred_bimod.ras_rate.PP                     1.0000 |       1.0000 |       1.0000 |xxxxxxxxxxxxx |xxxxxxxxxxxxx |xxxxxxxxxxxxx |xxxxxxxxxxxxx |       1.0000 |       1.0000 |       1.0000 |xxxxxxxxxxxxx |xxxxxxxxxxxxx |xxxxxxxxxxxxx |xxxxxxxxxxxxx |       1.0000 |       1.0000 |       1.0000 |xxxxxxxxxxxxx |xxxxxxxxxxxxx |xxxxxxxxxxxxx |xxxxxxxxxxxxx |       1.0000 |       1.0000 |       1.0000 |xxxxxxxxxxxxx |xxxxxxxxxxxxx |xxxxxxxxxxxxx |xxxxxxxxxxxxx |       1.0000 |       1.0000 |       1.0000 |xxxxxxxxxxxxx |xxxxxxxxxxxxx |xxxxxxxxxxxxx |xxxxxxxxxxxxx |       1.0000 |       1.0000 |       1.0000 |xxxxxxxxxxxxx |xxxxxxxxxxxxx |xxxxxxxxxxxxx |xxxxxxxxxxxxx |       1.0000 |       1.0000 |       1.0000 |xxxxxxxxxxxxx |xxxxxxxxxxxxx |xxxxxxxxxxxxx |xxxxxxxxxxxxx |       1.0000 |       1.0000 |       1.0000 |xxxxxxxxxxxxx |xxxxxxxxxxxxx |xxxxxxxxxxxxx |xxxxxxxxxxxxx |       1.0000 |       1.0000 |       1.0000 |xxxxxxxxxxxxx |xxxxxxxxxxxxx |xxxxxxxxxxxxx |xxxxxxxxxxxxx |       1.0000 |       1.0000 |       1.0000 |xxxxxxxxxxxxx |xxxxxxxxxxxxx |xxxxxxxxxxxxx |xxxxxxxxxxxxx |       1.0000 |       1.0000 |       1.0000 |
bpred_2lev.lookups                   xxxxxxxxxxxxx |xxxxxxxxxxxxx |xxxxxxxxxxxxx |        78151 |        78151 |        78151 |        78151 |xxxxxxxxxxxxx |xxxxxxxxxxxxx |xxxxxxxxxxxxx |       165740 |       165740 |       165740 |       165740 |xxxxxxxxxxxxx |xxxxxxxxxxxxx |xxxxxxxxxxxxx |       355861 |       355861 |       355861 |       355861 |xxxxxxxxxxxxx |xxxxxxxxxxxxx |xxxxxxxxxxxxx |       784215 |       784215 |       784215 |       784215 |xxxxxxxxxxxxx |xxxxxxxxxxxxx |xxxxxxxxxxxxx |      1656245 |      1656245 |      1656245 |      1656245 |xxxxxxxxxxxxx |xxxxxxxxxxxxx |xxxxxxxxxxxxx |      3477613 |      3477613 |      3477613 |      3477613 |xxxxxxxxxxxxx |xxxxxxxxxxxxx |xxxxxxxxxxxxx |      7415106 |      7415106 |      7415106 |      7415106 |xxxxxxxxxxxxx |xxxxxxxxxxxxx |xxxxxxxxxxxxx |     15820389 |     15820389 |     15820389 |     15820389 |xxxxxxxxxxxxx |xxxxxxxxxxxxx |xxxxxxxxxxxxx |     33146638 |     33146638 |     33146638 |     33146638 |xxxxxxxxxxxxx |xxxxxxxxxxxxx |xxxxxxxxxxxxx |     83510929 |     83510929 |     83510929 |     83510929 |xxxxxxxxxxxxx |xxxxxxxxxxxxx |xxxxxxxxxxxxx |    181809042 |    181809042 |    181809042 |    181809042 |
[...]
bpred_2lev.retstack_pushes           xxxxxxxxxxxxx |xxxxxxxxxxxxx |xxxxxxxxxxxxx |           67 |           67 |           67 |           67 |xxxxxxxxxxxxx |xxxxxxxxxxxxx |xxxxxxxxxxxxx |           67 |           67 |           67 |           67 |xxxxxxxxxxxxx |xxxxxxxxxxxxx |xxxxxxxxxxxxx |           67 |           67 |           67 |           67 |xxxxxxxxxxxxx |xxxxxxxxxxxxx |xxxxxxxxxxxxx |           67 |           67 |           67 |           67 |xxxxxxxxxxxxx |xxxxxxxxxxxxx |xxxxxxxxxxxxx |           67 |           67 |           67 |           67 |xxxxxxxxxxxxx |xxxxxxxxxxxxx |xxxxxxxxxxxxx |           67 |           67 |           67 |           67 |xxxxxxxxxxxxx |xxxxxxxxxxxxx |xxxxxxxxxxxxx |           67 |           67 |           67 |           67 |xxxxxxxxxxxxx |xxxxxxxxxxxxx |xxxxxxxxxxxxx |           67 |           67 |           67 |           67 |xxxxxxxxxxxxx |xxxxxxxxxxxxx |xxxxxxxxxxxxx |           67 |           67 |           67 |           67 |xxxxxxxxxxxxx |xxxxxxxxxxxxx |xxxxxxxxxxxxx |          112 |          112 |          112 |          112 |xxxxxxxxxxxxx |xxxxxxxxxxxxx |xxxxxxxxxxxxx |          124 |          124 |          124 |          124 |
bpred_2lev.retstack_pops             xxxxxxxxxxxxx |xxxxxxxxxxxxx |xxxxxxxxxxxxx |           65 |           65 |           65 |           65 |xxxxxxxxxxxxx |xxxxxxxxxxxxx |xxxxxxxxxxxxx |           65 |           65 |           65 |           65 |xxxxxxxxxxxxx |xxxxxxxxxxxxx |xxxxxxxxxxxxx |           65 |           65 |           65 |           65 |xxxxxxxxxxxxx |xxxxxxxxxxxxx |xxxxxxxxxxxxx |           65 |           65 |           65 |           65 |xxxxxxxxxxxxx |xxxxxxxxxxxxx |xxxxxxxxxxxxx |           65 |           65 |           65 |           65 |xxxxxxxxxxxxx |xxxxxxxxxxxxx |xxxxxxxxxxxxx |           65 |           65 |           65 |           65 |xxxxxxxxxxxxx |xxxxxxxxxxxxx |xxxxxxxxxxxxx |           65 |           65 |           65 |           65 |xxxxxxxxxxxxx |xxxxxxxxxxxxx |xxxxxxxxxxxxx |           65 |           65 |           65 |           65 |xxxxxxxxxxxxx |xxxxxxxxxxxxx |xxxxxxxxxxxxx |           65 |           65 |           65 |           65 |xxxxxxxxxxxxx |xxxxxxxxxxxxx |xxxxxxxxxxxxx |          110 |          110 |          110 |          110 |xxxxxxxxxxxxx |xxxxxxxxxxxxx |xxxxxxxxxxxxx |          122 |          122 |          122 |          122 |
bpred_2lev.used_ras.PP               xxxxxxxxxxxxx |xxxxxxxxxxxxx |xxxxxxxxxxxxx |           65 |           65 |           65 |           65 |xxxxxxxxxxxxx |xxxxxxxxxxxxx |xxxxxxxxxxxxx |           65 |           65 |           65 |           65 |xxxxxxxxxxxxx |xxxxxxxxxxxxx |xxxxxxxxxxxxx |           65 |           65 |           65 |           65 |xxxxxxxxxxxxx |xxxxxxxxxxxxx |xxxxxxxxxxxxx |           65 |           65 |           65 |           65 |xxxxxxxxxxxxx |xxxxxxxxxxxxx |xxxxxxxxxxxxx |           65 |           65 |           65 |           65 |xxxxxxxxxxxxx |xxxxxxxxxxxxx |xxxxxxxxxxxxx |           65 |           65 |           65 |           65 |xxxxxxxxxxxxx |xxxxxxxxxxxxx |xxxxxxxxxxxxx |           65 |           65 |           65 |           65 |xxxxxxxxxxxxx |xxxxxxxxxxxxx |xxxxxxxxxxxxx |           65 |           65 |           65 |           65 |xxxxxxxxxxxxx |xxxxxxxxxxxxx |xxxxxxxxxxxxx |           65 |           65 |           65 |           65 |xxxxxxxxxxxxx |xxxxxxxxxxxxx |xxxxxxxxxxxxx |          110 |          110 |          110 |          110 |xxxxxxxxxxxxx |xxxxxxxxxxxxx |xxxxxxxxxxxxx |          122 |          122 |          122 |          122 |
bpred_2lev.ras_hits.PP               xxxxxxxxxxxxx |xxxxxxxxxxxxx |xxxxxxxxxxxxx |           65 |           65 |           65 |           65 |xxxxxxxxxxxxx |xxxxxxxxxxxxx |xxxxxxxxxxxxx |           65 |           65 |           65 |           65 |xxxxxxxxxxxxx |xxxxxxxxxxxxx |xxxxxxxxxxxxx |           65 |           65 |           65 |           65 |xxxxxxxxxxxxx |xxxxxxxxxxxxx |xxxxxxxxxxxxx |           65 |           65 |           65 |           65 |xxxxxxxxxxxxx |xxxxxxxxxxxxx |xxxxxxxxxxxxx |           65 |           65 |           65 |           65 |xxxxxxxxxxxxx |xxxxxxxxxxxxx |xxxxxxxxxxxxx |           65 |           65 |           65 |           65 |xxxxxxxxxxxxx |xxxxxxxxxxxxx |xxxxxxxxxxxxx |           65 |           65 |           65 |           65 |xxxxxxxxxxxxx |xxxxxxxxxxxxx |xxxxxxxxxxxxx |           65 |           65 |           65 |           65 |xxxxxxxxxxxxx |xxxxxxxxxxxxx |xxxxxxxxxxxxx |           65 |           65 |           65 |           65 |xxxxxxxxxxxxx |xxxxxxxxxxxxx |xxxxxxxxxxxxx |          110 |          110 |          110 |          110 |xxxxxxxxxxxxx |xxxxxxxxxxxxx |xxxxxxxxxxxxx |          122 |          122 |          122 |          122 |
bpred_2lev.ras_rate.PP               xxxxxxxxxxxxx |xxxxxxxxxxxxx |xxxxxxxxxxxxx |       1.0000 |       1.0000 |       1.0000 |       1.0000 |xxxxxxxxxxxxx |xxxxxxxxxxxxx |xxxxxxxxxxxxx |       1.0000 |       1.0000 |       1.0000 |       1.0000 |xxxxxxxxxxxxx |xxxxxxxxxxxxx |xxxxxxxxxxxxx |       1.0000 |       1.0000 |       1.0000 |       1.0000 |xxxxxxxxxxxxx |xxxxxxxxxxxxx |xxxxxxxxxxxxx |       1.0000 |       1.0000 |       1.0000 |       1.0000 |xxxxxxxxxxxxx |xxxxxxxxxxxxx |xxxxxxxxxxxxx |       1.0000 |       1.0000 |       1.0000 |       1.0000 |xxxxxxxxxxxxx |xxxxxxxxxxxxx |xxxxxxxxxxxxx |       1.0000 |       1.0000 |       1.0000 |       1.0000 |xxxxxxxxxxxxx |xxxxxxxxxxxxx |xxxxxxxxxxxxx |       1.0000 |       1.0000 |       1.0000 |       1.0000 |xxxxxxxxxxxxx |xxxxxxxxxxxxx |xxxxxxxxxxxxx |       1.0000 |       1.0000 |       1.0000 |       1.0000 |xxxxxxxxxxxxx |xxxxxxxxxxxxx |xxxxxxxxxxxxx |       1.0000 |       1.0000 |       1.0000 |       1.0000 |xxxxxxxxxxxxx |xxxxxxxxxxxxx |xxxxxxxxxxxxx |       1.0000 |       1.0000 |       1.0000 |       1.0000 |xxxxxxxxxxxxx |xxxxxxxxxxxxx |xxxxxxxxxxxxx |       1.0000 |       1.0000 |       1.0000 |       1.0000 |

Command list: 
	sslittle-na-sstrix-gcc -Wall -O3 -funroll-loops -finline-functions  -DRANDOM_SIZE=4096 -DOFFSET=7 -DSORT=multi_quicksort sorts/multi_quicksort678717837.c simpleMain.c -o multi_quicksort1378420979
	sim-cache -cache:dl1 dl1:256:32:1:l -cache:dl2 dl2:131072:32:1:l -cache:il1 il1:256:32:1:l -cache:il2 dl2 multi_quicksort1378420979
	sim-cache -cache:dl1 dl1:256:32:1:l -cache:dl2 dl2:65536:32:1:l -cache:il1 il1:256:32:1:l -cache:il2 dl2 multi_quicksort1378420979
	sim-cache -cache:dl1 dl1:1:32:256:l -cache:dl2 dl2:1:32:131072:l -cache:il1 il1:1:32:256:l -cache:il2 dl2 multi_quicksort1378420979
	sim-cache -cache:dl1 dl1:1:32:256:l -cache:dl2 dl2:1:32:65536:l -cache:il1 il1:1:32:256:l -cache:il2 dl2 multi_quicksort1378420979
	sim-bpred -bpred bimod -bpred:bimod 512 multi_quicksort1378420979
	sim-bpred -bpred bimod -bpred:bimod 1024 multi_quicksort1378420979
	sim-bpred -bpred bimod -bpred:bimod 2048 multi_quicksort1378420979
	sim-bpred -bpred 2lev -bpred:2lev 1 512 10 1 multi_quicksort1378420979
	sim-bpred -bpred 2lev -bpred:2lev 1 1024 10 1 multi_quicksort1378420979
	sim-bpred -bpred 2lev -bpred:2lev 1 2048 10 1 multi_quicksort1378420979
	sim-bpred -bpred 2lev -bpred:2lev 1 4096 10 1 multi_quicksort1378420979
	sslittle-na-sstrix-gcc -Wall -O3 -funroll-loops -finline-functions  -DRANDOM_SIZE=8192 -DOFFSET=7 -DSORT=multi_quicksort sorts/multi_quicksort678717837.c simpleMain.c -o multi_quicksort1378420979
	sim-cache -cache:dl1 dl1:256:32:1:l -cache:dl2 dl2:131072:32:1:l -cache:il1 il1:256:32:1:l -cache:il2 dl2 multi_quicksort1378420979
	sim-cache -cache:dl1 dl1:256:32:1:l -cache:dl2 dl2:65536:32:1:l -cache:il1 il1:256:32:1:l -cache:il2 dl2 multi_quicksort1378420979
	sim-cache -cache:dl1 dl1:1:32:256:l -cache:dl2 dl2:1:32:131072:l -cache:il1 il1:1:32:256:l -cache:il2 dl2 multi_quicksort1378420979
	sim-cache -cache:dl1 dl1:1:32:256:l -cache:dl2 dl2:1:32:65536:l -cache:il1 il1:1:32:256:l -cache:il2 dl2 multi_quicksort1378420979
	sim-bpred -bpred bimod -bpred:bimod 512 multi_quicksort1378420979
	sim-bpred -bpred bimod -bpred:bimod 1024 multi_quicksort1378420979
	sim-bpred -bpred bimod -bpred:bimod 2048 multi_quicksort1378420979
	sim-bpred -bpred 2lev -bpred:2lev 1 512 10 1 multi_quicksort1378420979
	sim-bpred -bpred 2lev -bpred:2lev 1 1024 10 1 multi_quicksort1378420979
	sim-bpred -bpred 2lev -bpred:2lev 1 2048 10 1 multi_quicksort1378420979
	sim-bpred -bpred 2lev -bpred:2lev 1 4096 10 1 multi_quicksort1378420979
	sslittle-na-sstrix-gcc -Wall -O3 -funroll-loops -finline-functions  -DRANDOM_SIZE=16384 -DOFFSET=7 -DSORT=multi_quicksort sorts/multi_quicksort678717837.c simpleMain.c -o multi_quicksort1378420979
	sim-cache -cache:dl1 dl1:256:32:1:l -cache:dl2 dl2:131072:32:1:l -cache:il1 il1:256:32:1:l -cache:il2 dl2 multi_quicksort1378420979
	sim-cache -cache:dl1 dl1:256:32:1:l -cache:dl2 dl2:65536:32:1:l -cache:il1 il1:256:32:1:l -cache:il2 dl2 multi_quicksort1378420979
	sim-cache -cache:dl1 dl1:1:32:256:l -cache:dl2 dl2:1:32:131072:l -cache:il1 il1:1:32:256:l -cache:il2 dl2 multi_quicksort1378420979
	sim-cache -cache:dl1 dl1:1:32:256:l -cache:dl2 dl2:1:32:65536:l -cache:il1 il1:1:32:256:l -cache:il2 dl2 multi_quicksort1378420979
	sim-bpred -bpred bimod -bpred:bimod 512 multi_quicksort1378420979
	sim-bpred -bpred bimod -bpred:bimod 1024 multi_quicksort1378420979
	sim-bpred -bpred bimod -bpred:bimod 2048 multi_quicksort1378420979
	sim-bpred -bpred 2lev -bpred:2lev 1 512 10 1 multi_quicksort1378420979
	sim-bpred -bpred 2lev -bpred:2lev 1 1024 10 1 multi_quicksort1378420979
	sim-bpred -bpred 2lev -bpred:2lev 1 2048 10 1 multi_quicksort1378420979
	sim-bpred -bpred 2lev -bpred:2lev 1 4096 10 1 multi_quicksort1378420979
	sslittle-na-sstrix-gcc -Wall -O3 -funroll-loops -finline-functions  -DRANDOM_SIZE=32768 -DOFFSET=7 -DSORT=multi_quicksort sorts/multi_quicksort678717837.c simpleMain.c -o multi_quicksort1378420979
	sim-cache -cache:dl1 dl1:256:32:1:l -cache:dl2 dl2:131072:32:1:l -cache:il1 il1:256:32:1:l -cache:il2 dl2 multi_quicksort1378420979
	sim-cache -cache:dl1 dl1:256:32:1:l -cache:dl2 dl2:65536:32:1:l -cache:il1 il1:256:32:1:l -cache:il2 dl2 multi_quicksort1378420979
	sim-cache -cache:dl1 dl1:1:32:256:l -cache:dl2 dl2:1:32:131072:l -cache:il1 il1:1:32:256:l -cache:il2 dl2 multi_quicksort1378420979
	sim-cache -cache:dl1 dl1:1:32:256:l -cache:dl2 dl2:1:32:65536:l -cache:il1 il1:1:32:256:l -cache:il2 dl2 multi_quicksort1378420979
	sim-bpred -bpred bimod -bpred:bimod 512 multi_quicksort1378420979
	sim-bpred -bpred bimod -bpred:bimod 1024 multi_quicksort1378420979
	sim-bpred -bpred bimod -bpred:bimod 2048 multi_quicksort1378420979
	sim-bpred -bpred 2lev -bpred:2lev 1 512 10 1 multi_quicksort1378420979
	sim-bpred -bpred 2lev -bpred:2lev 1 1024 10 1 multi_quicksort1378420979
	sim-bpred -bpred 2lev -bpred:2lev 1 2048 10 1 multi_quicksort1378420979
	sim-bpred -bpred 2lev -bpred:2lev 1 4096 10 1 multi_quicksort1378420979
	sslittle-na-sstrix-gcc -Wall -O3 -funroll-loops -finline-functions  -DRANDOM_SIZE=65536 -DOFFSET=7 -DSORT=multi_quicksort sorts/multi_quicksort678717837.c simpleMain.c -o multi_quicksort1378420979
	sim-cache -cache:dl1 dl1:256:32:1:l -cache:dl2 dl2:131072:32:1:l -cache:il1 il1:256:32:1:l -cache:il2 dl2 multi_quicksort1378420979
	sim-cache -cache:dl1 dl1:256:32:1:l -cache:dl2 dl2:65536:32:1:l -cache:il1 il1:256:32:1:l -cache:il2 dl2 multi_quicksort1378420979
	sim-cache -cache:dl1 dl1:1:32:256:l -cache:dl2 dl2:1:32:131072:l -cache:il1 il1:1:32:256:l -cache:il2 dl2 multi_quicksort1378420979
	sim-cache -cache:dl1 dl1:1:32:256:l -cache:dl2 dl2:1:32:65536:l -cache:il1 il1:1:32:256:l -cache:il2 dl2 multi_quicksort1378420979
	sim-bpred -bpred bimod -bpred:bimod 512 multi_quicksort1378420979
	sim-bpred -bpred bimod -bpred:bimod 1024 multi_quicksort1378420979
	sim-bpred -bpred bimod -bpred:bimod 2048 multi_quicksort1378420979
	sim-bpred -bpred 2lev -bpred:2lev 1 512 10 1 multi_quicksort1378420979
	sim-bpred -bpred 2lev -bpred:2lev 1 1024 10 1 multi_quicksort1378420979
	sim-bpred -bpred 2lev -bpred:2lev 1 2048 10 1 multi_quicksort1378420979
	sim-bpred -bpred 2lev -bpred:2lev 1 4096 10 1 multi_quicksort1378420979
	sslittle-na-sstrix-gcc -Wall -O3 -funroll-loops -finline-functions  -DRANDOM_SIZE=131072 -DOFFSET=7 -DSORT=multi_quicksort sorts/multi_quicksort678717837.c simpleMain.c -o multi_quicksort1378420979
	sim-cache -cache:dl1 dl1:256:32:1:l -cache:dl2 dl2:131072:32:1:l -cache:il1 il1:256:32:1:l -cache:il2 dl2 multi_quicksort1378420979
	sim-cache -cache:dl1 dl1:256:32:1:l -cache:dl2 dl2:65536:32:1:l -cache:il1 il1:256:32:1:l -cache:il2 dl2 multi_quicksort1378420979
	sim-cache -cache:dl1 dl1:1:32:256:l -cache:dl2 dl2:1:32:131072:l -cache:il1 il1:1:32:256:l -cache:il2 dl2 multi_quicksort1378420979
	sim-cache -cache:dl1 dl1:1:32:256:l -cache:dl2 dl2:1:32:65536:l -cache:il1 il1:1:32:256:l -cache:il2 dl2 multi_quicksort1378420979
	sim-bpred -bpred bimod -bpred:bimod 512 multi_quicksort1378420979
	sim-bpred -bpred bimod -bpred:bimod 1024 multi_quicksort1378420979
	sim-bpred -bpred bimod -bpred:bimod 2048 multi_quicksort1378420979
	sim-bpred -bpred 2lev -bpred:2lev 1 512 10 1 multi_quicksort1378420979
	sim-bpred -bpred 2lev -bpred:2lev 1 1024 10 1 multi_quicksort1378420979
	sim-bpred -bpred 2lev -bpred:2lev 1 2048 10 1 multi_quicksort1378420979
	sim-bpred -bpred 2lev -bpred:2lev 1 4096 10 1 multi_quicksort1378420979
	sslittle-na-sstrix-gcc -Wall -O3 -funroll-loops -finline-functions  -DRANDOM_SIZE=262144 -DOFFSET=7 -DSORT=multi_quicksort sorts/multi_quicksort678717837.c simpleMain.c -o multi_quicksort1378420979
	sim-cache -cache:dl1 dl1:256:32:1:l -cache:dl2 dl2:131072:32:1:l -cache:il1 il1:256:32:1:l -cache:il2 dl2 multi_quicksort1378420979
	sim-cache -cache:dl1 dl1:256:32:1:l -cache:dl2 dl2:65536:32:1:l -cache:il1 il1:256:32:1:l -cache:il2 dl2 multi_quicksort1378420979
	sim-cache -cache:dl1 dl1:1:32:256:l -cache:dl2 dl2:1:32:131072:l -cache:il1 il1:1:32:256:l -cache:il2 dl2 multi_quicksort1378420979
	sim-cache -cache:dl1 dl1:1:32:256:l -cache:dl2 dl2:1:32:65536:l -cache:il1 il1:1:32:256:l -cache:il2 dl2 multi_quicksort1378420979
	sim-bpred -bpred bimod -bpred:bimod 512 multi_quicksort1378420979
	sim-bpred -bpred bimod -bpred:bimod 1024 multi_quicksort1378420979
	sim-bpred -bpred bimod -bpred:bimod 2048 multi_quicksort1378420979
	sim-bpred -bpred 2lev -bpred:2lev 1 512 10 1 multi_quicksort1378420979
	sim-bpred -bpred 2lev -bpred:2lev 1 1024 10 1 multi_quicksort1378420979
	sim-bpred -bpred 2lev -bpred:2lev 1 2048 10 1 multi_quicksort1378420979
	sim-bpred -bpred 2lev -bpred:2lev 1 4096 10 1 multi_quicksort1378420979
	sslittle-na-sstrix-gcc -Wall -O3 -funroll-loops -finline-functions  -DRANDOM_SIZE=524288 -DOFFSET=7 -DSORT=multi_quicksort sorts/multi_quicksort678717837.c simpleMain.c -o multi_quicksort1378420979
	sim-cache -cache:dl1 dl1:256:32:1:l -cache:dl2 dl2:131072:32:1:l -cache:il1 il1:256:32:1:l -cache:il2 dl2 multi_quicksort1378420979
	sim-cache -cache:dl1 dl1:256:32:1:l -cache:dl2 dl2:65536:32:1:l -cache:il1 il1:256:32:1:l -cache:il2 dl2 multi_quicksort1378420979
	sim-cache -cache:dl1 dl1:1:32:256:l -cache:dl2 dl2:1:32:131072:l -cache:il1 il1:1:32:256:l -cache:il2 dl2 multi_quicksort1378420979
	sim-cache -cache:dl1 dl1:1:32:256:l -cache:dl2 dl2:1:32:65536:l -cache:il1 il1:1:32:256:l -cache:il2 dl2 multi_quicksort1378420979
	sim-bpred -bpred bimod -bpred:bimod 512 multi_quicksort1378420979
	sim-bpred -bpred bimod -bpred:bimod 1024 multi_quicksort1378420979
	sim-bpred -bpred bimod -bpred:bimod 2048 multi_quicksort1378420979
	sim-bpred -bpred 2lev -bpred:2lev 1 512 10 1 multi_quicksort1378420979
	sim-bpred -bpred 2lev -bpred:2lev 1 1024 10 1 multi_quicksort1378420979
	sim-bpred -bpred 2lev -bpred:2lev 1 2048 10 1 multi_quicksort1378420979
	sim-bpred -bpred 2lev -bpred:2lev 1 4096 10 1 multi_quicksort1378420979
	sslittle-na-sstrix-gcc -Wall -O3 -funroll-loops -finline-functions  -DRANDOM_SIZE=1048576 -DOFFSET=7 -DSORT=multi_quicksort sorts/multi_quicksort678717837.c simpleMain.c -o multi_quicksort1378420979
	sim-cache -cache:dl1 dl1:256:32:1:l -cache:dl2 dl2:131072:32:1:l -cache:il1 il1:256:32:1:l -cache:il2 dl2 multi_quicksort1378420979
	sim-cache -cache:dl1 dl1:256:32:1:l -cache:dl2 dl2:65536:32:1:l -cache:il1 il1:256:32:1:l -cache:il2 dl2 multi_quicksort1378420979
	sim-cache -cache:dl1 dl1:1:32:256:l -cache:dl2 dl2:1:32:131072:l -cache:il1 il1:1:32:256:l -cache:il2 dl2 multi_quicksort1378420979
	sim-cache -cache:dl1 dl1:1:32:256:l -cache:dl2 dl2:1:32:65536:l -cache:il1 il1:1:32:256:l -cache:il2 dl2 multi_quicksort1378420979
	sim-bpred -bpred bimod -bpred:bimod 512 multi_quicksort1378420979
	sim-bpred -bpred bimod -bpred:bimod 1024 multi_quicksort1378420979
	sim-bpred -bpred bimod -bpred:bimod 2048 multi_quicksort1378420979
	sim-bpred -bpred 2lev -bpred:2lev 1 512 10 1 multi_quicksort1378420979
	sim-bpred -bpred 2lev -bpred:2lev 1 1024 10 1 multi_quicksort1378420979
	sim-bpred -bpred 2lev -bpred:2lev 1 2048 10 1 multi_quicksort1378420979
	sim-bpred -bpred 2lev -bpred:2lev 1 4096 10 1 multi_quicksort1378420979
	sslittle-na-sstrix-gcc -Wall -O3 -funroll-loops -finline-functions  -DRANDOM_SIZE=2097152 -DOFFSET=7 -DSORT=multi_quicksort sorts/multi_quicksort678717837.c simpleMain.c -o multi_quicksort1378420979
	sim-cache -cache:dl1 dl1:256:32:1:l -cache:dl2 dl2:131072:32:1:l -cache:il1 il1:256:32:1:l -cache:il2 dl2 multi_quicksort1378420979
	sim-cache -cache:dl1 dl1:256:32:1:l -cache:dl2 dl2:65536:32:1:l -cache:il1 il1:256:32:1:l -cache:il2 dl2 multi_quicksort1378420979
	sim-cache -cache:dl1 dl1:1:32:256:l -cache:dl2 dl2:1:32:131072:l -cache:il1 il1:1:32:256:l -cache:il2 dl2 multi_quicksort1378420979
	sim-cache -cache:dl1 dl1:1:32:256:l -cache:dl2 dl2:1:32:65536:l -cache:il1 il1:1:32:256:l -cache:il2 dl2 multi_quicksort1378420979
	sim-bpred -bpred bimod -bpred:bimod 512 multi_quicksort1378420979
	sim-bpred -bpred bimod -bpred:bimod 1024 multi_quicksort1378420979
	sim-bpred -bpred bimod -bpred:bimod 2048 multi_quicksort1378420979
	sim-bpred -bpred 2lev -bpred:2lev 1 512 10 1 multi_quicksort1378420979
	sim-bpred -bpred 2lev -bpred:2lev 1 1024 10 1 multi_quicksort1378420979
	sim-bpred -bpred 2lev -bpred:2lev 1 2048 10 1 multi_quicksort1378420979
	sim-bpred -bpred 2lev -bpred:2lev 1 4096 10 1 multi_quicksort1378420979
	sslittle-na-sstrix-gcc -Wall -O3 -funroll-loops -finline-functions  -DRANDOM_SIZE=4194304 -DOFFSET=7 -DSORT=multi_quicksort sorts/multi_quicksort678717837.c simpleMain.c -o multi_quicksort1378420979
	sim-cache -cache:dl1 dl1:256:32:1:l -cache:dl2 dl2:131072:32:1:l -cache:il1 il1:256:32:1:l -cache:il2 dl2 multi_quicksort1378420979
	sim-cache -cache:dl1 dl1:256:32:1:l -cache:dl2 dl2:65536:32:1:l -cache:il1 il1:256:32:1:l -cache:il2 dl2 multi_quicksort1378420979
	sim-cache -cache:dl1 dl1:1:32:256:l -cache:dl2 dl2:1:32:131072:l -cache:il1 il1:1:32:256:l -cache:il2 dl2 multi_quicksort1378420979
	sim-cache -cache:dl1 dl1:1:32:256:l -cache:dl2 dl2:1:32:65536:l -cache:il1 il1:1:32:256:l -cache:il2 dl2 multi_quicksort1378420979
	sim-bpred -bpred bimod -bpred:bimod 512 multi_quicksort1378420979
	sim-bpred -bpred bimod -bpred:bimod 1024 multi_quicksort1378420979
	sim-bpred -bpred bimod -bpred:bimod 2048 multi_quicksort1378420979
	sim-bpred -bpred 2lev -bpred:2lev 1 512 10 1 multi_quicksort1378420979
	sim-bpred -bpred 2lev -bpred:2lev 1 1024 10 1 multi_quicksort1378420979
	sim-bpred -bpred 2lev -bpred:2lev 1 2048 10 1 multi_quicksort1378420979
	sim-bpred -bpred 2lev -bpred:2lev 1 4096 10 1 multi_quicksort1378420979
