Thu Jul 21 07:16:52 2005
Run as: "./do_simple -c random.org6 -o 6 multi_quicksort_seq"
-------------------------------------------------------------------------------------------------
sim-cache                                     4096 |         4096 |         4096 |         4096 |         8192 |         8192 |         8192 |         8192 |        16384 |        16384 |        16384 |        16384 |        32768 |        32768 |        32768 |        32768 |        65536 |        65536 |        65536 |        65536 |       131072 |       131072 |       131072 |       131072 |       262144 |       262144 |       262144 |       262144 |       524288 |       524288 |       524288 |       524288 |      1048576 |      1048576 |      1048576 |      1048576 |      2097152 |      2097152 |      2097152 |      2097152 |      4194304 |      4194304 |      4194304 |      4194304 |
-cache:dl1 dl1:256:32:1:l -cache:dl2 dl2:131072:32:1:l -cache:il1 il1:256:32:1:l -cache:il2 dl2
-cache:dl1 dl1:256:32:1:l -cache:dl2 dl2:65536:32:1:l -cache:il1 il1:256:32:1:l -cache:il2 dl2
-cache:dl1 dl1:1:32:256:l -cache:dl2 dl2:1:32:131072:l -cache:il1 il1:1:32:256:l -cache:il2 dl2
-cache:dl1 dl1:1:32:256:l -cache:dl2 dl2:1:32:65536:l -cache:il1 il1:1:32:256:l -cache:il2 dl2
-------------------------------------------------------------------------------------------------
sim_num_insn                                458580 |       458580 |       458580 |       458580 |       970856 |       970856 |       970856 |       970856 |      2127285 |      2127285 |      2127285 |      2127285 |      4620531 |      4620531 |      4620531 |      4620531 |     10059794 |     10059794 |     10059794 |     10059794 |     20901553 |     20901553 |     20901553 |     20901553 |     44230773 |     44230773 |     44230773 |     44230773 |     92116015 |     92116015 |     92116015 |     92116015 |    194209452 |    194209452 |    194209452 |    194209452 |    576302931 |    576302931 |    576302931 |    576302931 |   1361256486 |   1361256486 |   1361256486 |   1361256486 |
sim_num_refs                                122305 |       122305 |       122305 |       122305 |       255244 |       255244 |       255244 |       255244 |       548656 |       548656 |       548656 |       548656 |      1172068 |      1172068 |      1172068 |      1172068 |      2511852 |      2511852 |      2511852 |      2511852 |      5237623 |      5237623 |      5237623 |      5237623 |     11026635 |     11026635 |     11026635 |     11026635 |     23024759 |     23024759 |     23024759 |     23024759 |     48306586 |     48306586 |     48306586 |     48306586 |    134407894 |    134407894 |    134407894 |    134407894 |    299429697 |    299429697 |    299429697 |    299429697 |
sim_elapsed_time                                 1 |            1 |            7 |            4 |            1 |            1 |           10 |            5 |            1 |            1 |           15 |            8 |            1 |            1 |           27 |           13 |            2 |            3 |           48 |           24 |            6 |            6 |           88 |           44 |           11 |           12 |          163 |           76 |           25 |           24 |          280 |          109 |           51 |           52 |          388 |          137 |          153 |          152 |          498 |          246 |          353 |          353 |          711 |          460 |
sim_inst_rate                          458580.0000 |  458580.0000 |   65511.4286 |  114645.0000 |  970856.0000 |  970856.0000 |   97085.6000 |  194171.2000 | 2127285.0000 | 2127285.0000 |  141819.0000 |  265910.6250 | 4620531.0000 | 4620531.0000 |  171130.7778 |  355425.4615 | 5029897.0000 | 3353264.6667 |  209579.0417 |  419158.0833 | 3483592.1667 | 3483592.1667 |  237517.6477 |  475035.2955 | 4020979.3636 | 3685897.7500 |  271354.4356 |  581983.8553 | 3684640.6000 | 3838167.2917 |  328985.7679 |  845101.0550 | 3808028.4706 | 3734797.1538 |  500539.8247 | 1417587.2409 | 3766685.8235 | 3791466.6513 | 1157234.8012 | 2342694.8415 | 3856250.6686 | 3856250.6686 | 1914566.0844 | 2959253.2304 |
il1.accesses                                458580 |       458580 |       458580 |       458580 |       970856 |       970856 |       970856 |       970856 |      2127285 |      2127285 |      2127285 |      2127285 |      4620531 |      4620531 |      4620531 |      4620531 |     10059794 |     10059794 |     10059794 |     10059794 |     20901553 |     20901553 |     20901553 |     20901553 |     44230773 |     44230773 |     44230773 |     44230773 |     92116015 |     92116015 |     92116015 |     92116015 |    194209452 |    194209452 |    194209452 |    194209452 |    576302931 |    576302931 |    576302931 |    576302931 |   1361256486 |   1361256486 |   1361256486 |   1361256486 |
il1.hits                                    458115 |       458115 |       458146 |       458146 |       970385 |       970385 |       970416 |       970416 |      2126802 |      2126802 |      2126841 |      2126841 |      4620067 |      4620067 |      4620096 |      4620096 |     10059324 |     10059324 |     10059353 |     10059353 |     20901090 |     20901090 |     20901119 |     20901119 |     44230308 |     44230308 |     44230337 |     44230337 |     92115550 |     92115550 |     92115579 |     92115579 |    194208987 |    194208987 |    194209016 |    194209016 |    576302189 |    576302189 |    576302234 |    576302234 |   1361255752 |   1361255752 |   1361255797 |   1361255797 |
il1.misses                                     465 |          465 |          434 |          434 |          471 |          471 |          440 |          440 |          483 |          483 |          444 |          444 |          464 |          464 |          435 |          435 |          470 |          470 |          441 |          441 |          463 |          463 |          434 |          434 |          465 |          465 |          436 |          436 |          465 |          465 |          436 |          436 |          465 |          465 |          436 |          436 |          742 |          742 |          697 |          697 |          734 |          734 |          689 |          689 |
il1.replacements                               222 |          222 |          178 |          178 |          227 |          227 |          184 |          184 |          241 |          241 |          188 |          188 |          219 |          219 |          179 |          179 |          225 |          225 |          185 |          185 |          218 |          218 |          178 |          178 |          220 |          220 |          180 |          180 |          220 |          220 |          180 |          180 |          220 |          220 |          180 |          180 |          487 |          487 |          441 |          441 |          479 |          479 |          433 |          433 |
il1.writebacks                                   0 |            0 |            0 |            0 |            0 |            0 |            0 |            0 |            0 |            0 |            0 |            0 |            0 |            0 |            0 |            0 |            0 |            0 |            0 |            0 |            0 |            0 |            0 |            0 |            0 |            0 |            0 |            0 |            0 |            0 |            0 |            0 |            0 |            0 |            0 |            0 |            0 |            0 |            0 |            0 |            0 |            0 |            0 |            0 |
il1.invalidations                                0 |            0 |            0 |            0 |            0 |            0 |            0 |            0 |            0 |            0 |            0 |            0 |            0 |            0 |            0 |            0 |            0 |            0 |            0 |            0 |            0 |            0 |            0 |            0 |            0 |            0 |            0 |            0 |            0 |            0 |            0 |            0 |            0 |            0 |            0 |            0 |            0 |            0 |            0 |            0 |            0 |            0 |            0 |            0 |
il1.miss_rate                               0.0010 |       0.0010 |       0.0009 |       0.0009 |       0.0005 |       0.0005 |       0.0005 |       0.0005 |       0.0002 |       0.0002 |       0.0002 |       0.0002 |       0.0001 |       0.0001 |       0.0001 |       0.0001 |       0.0000 |       0.0000 |       0.0000 |       0.0000 |       0.0000 |       0.0000 |       0.0000 |       0.0000 |       0.0000 |       0.0000 |       0.0000 |       0.0000 |       0.0000 |       0.0000 |       0.0000 |       0.0000 |       0.0000 |       0.0000 |       0.0000 |       0.0000 |       0.0000 |       0.0000 |       0.0000 |       0.0000 |       0.0000 |       0.0000 |       0.0000 |       0.0000 |
il1.repl_rate                               0.0005 |       0.0005 |       0.0004 |       0.0004 |       0.0002 |       0.0002 |       0.0002 |       0.0002 |       0.0001 |       0.0001 |       0.0001 |       0.0001 |       0.0000 |       0.0000 |       0.0000 |       0.0000 |       0.0000 |       0.0000 |       0.0000 |       0.0000 |       0.0000 |       0.0000 |       0.0000 |       0.0000 |       0.0000 |       0.0000 |       0.0000 |       0.0000 |       0.0000 |       0.0000 |       0.0000 |       0.0000 |       0.0000 |       0.0000 |       0.0000 |       0.0000 |       0.0000 |       0.0000 |       0.0000 |       0.0000 |       0.0000 |       0.0000 |       0.0000 |       0.0000 |
il1.wb_rate                                 0.0000 |       0.0000 |       0.0000 |       0.0000 |       0.0000 |       0.0000 |       0.0000 |       0.0000 |       0.0000 |       0.0000 |       0.0000 |       0.0000 |       0.0000 |       0.0000 |       0.0000 |       0.0000 |       0.0000 |       0.0000 |       0.0000 |       0.0000 |       0.0000 |       0.0000 |       0.0000 |       0.0000 |       0.0000 |       0.0000 |       0.0000 |       0.0000 |       0.0000 |       0.0000 |       0.0000 |       0.0000 |       0.0000 |       0.0000 |       0.0000 |       0.0000 |       0.0000 |       0.0000 |       0.0000 |       0.0000 |       0.0000 |       0.0000 |       0.0000 |       0.0000 |
il1.inv_rate                                0.0000 |       0.0000 |       0.0000 |       0.0000 |       0.0000 |       0.0000 |       0.0000 |       0.0000 |       0.0000 |       0.0000 |       0.0000 |       0.0000 |       0.0000 |       0.0000 |       0.0000 |       0.0000 |       0.0000 |       0.0000 |       0.0000 |       0.0000 |       0.0000 |       0.0000 |       0.0000 |       0.0000 |       0.0000 |       0.0000 |       0.0000 |       0.0000 |       0.0000 |       0.0000 |       0.0000 |       0.0000 |       0.0000 |       0.0000 |       0.0000 |       0.0000 |       0.0000 |       0.0000 |       0.0000 |       0.0000 |       0.0000 |       0.0000 |       0.0000 |       0.0000 |
dl1.accesses                                138771 |       138771 |       138771 |       138771 |       288094 |       288094 |       288094 |       288094 |       614274 |       614274 |       614274 |       614274 |      1303222 |      1303222 |      1303222 |      1303222 |      2774078 |      2774078 |      2774078 |      2774078 |      5761993 |      5761993 |      5761993 |      5761993 |     12075293 |     12075293 |     12075293 |     12075293 |     25121993 |     25121993 |     25121993 |     25121993 |     52500972 |     52500972 |     52500972 |     52500972 |    142796585 |    142796585 |    142796585 |    142796585 |    316206996 |    316206996 |    316206996 |    316206996 |
dl1.hits                                    136679 |       136679 |       136617 |       136617 |       283303 |       283303 |       283348 |       283348 |       602825 |       602825 |       602711 |       602711 |      1273828 |      1273828 |      1273804 |      1273804 |      2700801 |      2700801 |      2700795 |      2700795 |      5605936 |      5605936 |      5606392 |      5606392 |     11723583 |     11723583 |     11725338 |     11725338 |     24364972 |     24364972 |     24371840 |     24371840 |     50823420 |     50823420 |     50841509 |     50841509 |    133916204 |    133916204 |    139140348 |    139140348 |    303272151 |    303272151 |    308646623 |    308646623 |
dl1.misses                                    2092 |         2092 |         2154 |         2154 |         4791 |         4791 |         4746 |         4746 |        11449 |        11449 |        11563 |        11563 |        29394 |        29394 |        29418 |        29418 |        73277 |        73277 |        73283 |        73283 |       156057 |       156057 |       155601 |       155601 |       351710 |       351710 |       349955 |       349955 |       757021 |       757021 |       750153 |       750153 |      1677552 |      1677552 |      1659463 |      1659463 |      8880381 |      8880381 |      3656237 |      3656237 |     12934845 |     12934845 |      7560373 |      7560373 |
dl1.replacements                              1836 |         1836 |         1898 |         1898 |         4535 |         4535 |         4490 |         4490 |        11193 |        11193 |        11307 |        11307 |        29138 |        29138 |        29162 |        29162 |        73021 |        73021 |        73027 |        73027 |       155801 |       155801 |       155345 |       155345 |       351454 |       351454 |       349699 |       349699 |       756765 |       756765 |       749897 |       749897 |      1677296 |      1677296 |      1659207 |      1659207 |      8880125 |      8880125 |      3655981 |      3655981 |     12934589 |     12934589 |      7560117 |      7560117 |
dl1.writebacks                                1794 |         1794 |         1868 |         1868 |         4420 |         4420 |         4449 |         4449 |        10805 |        10805 |        11019 |        11019 |        26646 |        26646 |        26868 |        26868 |        63588 |        63588 |        64112 |        64112 |       143007 |       143007 |       143878 |       143878 |       321613 |       321613 |       322933 |       322933 |       702085 |       702085 |       702875 |       702875 |      1557231 |      1557231 |      1556456 |      1556456 |      5482479 |      5482479 |      2973258 |      2973258 |     10221419 |     10221419 |      6121114 |      6121114 |
dl1.invalidations                                0 |            0 |            0 |            0 |            0 |            0 |            0 |            0 |            0 |            0 |            0 |            0 |            0 |            0 |            0 |            0 |            0 |            0 |            0 |            0 |            0 |            0 |            0 |            0 |            0 |            0 |            0 |            0 |            0 |            0 |            0 |            0 |            0 |            0 |            0 |            0 |            0 |            0 |            0 |            0 |            0 |            0 |            0 |            0 |
dl1.miss_rate                               0.0151 |       0.0151 |       0.0155 |       0.0155 |       0.0166 |       0.0166 |       0.0165 |       0.0165 |       0.0186 |       0.0186 |       0.0188 |       0.0188 |       0.0226 |       0.0226 |       0.0226 |       0.0226 |       0.0264 |       0.0264 |       0.0264 |       0.0264 |       0.0271 |       0.0271 |       0.0270 |       0.0270 |       0.0291 |       0.0291 |       0.0290 |       0.0290 |       0.0301 |       0.0301 |       0.0299 |       0.0299 |       0.0320 |       0.0320 |       0.0316 |       0.0316 |       0.0622 |       0.0622 |       0.0256 |       0.0256 |       0.0409 |       0.0409 |       0.0239 |       0.0239 |
dl1.repl_rate                               0.0132 |       0.0132 |       0.0137 |       0.0137 |       0.0157 |       0.0157 |       0.0156 |       0.0156 |       0.0182 |       0.0182 |       0.0184 |       0.0184 |       0.0224 |       0.0224 |       0.0224 |       0.0224 |       0.0263 |       0.0263 |       0.0263 |       0.0263 |       0.0270 |       0.0270 |       0.0270 |       0.0270 |       0.0291 |       0.0291 |       0.0290 |       0.0290 |       0.0301 |       0.0301 |       0.0299 |       0.0299 |       0.0319 |       0.0319 |       0.0316 |       0.0316 |       0.0622 |       0.0622 |       0.0256 |       0.0256 |       0.0409 |       0.0409 |       0.0239 |       0.0239 |
dl1.wb_rate                                 0.0129 |       0.0129 |       0.0135 |       0.0135 |       0.0153 |       0.0153 |       0.0154 |       0.0154 |       0.0176 |       0.0176 |       0.0179 |       0.0179 |       0.0204 |       0.0204 |       0.0206 |       0.0206 |       0.0229 |       0.0229 |       0.0231 |       0.0231 |       0.0248 |       0.0248 |       0.0250 |       0.0250 |       0.0266 |       0.0266 |       0.0267 |       0.0267 |       0.0279 |       0.0279 |       0.0280 |       0.0280 |       0.0297 |       0.0297 |       0.0296 |       0.0296 |       0.0384 |       0.0384 |       0.0208 |       0.0208 |       0.0323 |       0.0323 |       0.0194 |       0.0194 |
dl1.inv_rate                                0.0000 |       0.0000 |       0.0000 |       0.0000 |       0.0000 |       0.0000 |       0.0000 |       0.0000 |       0.0000 |       0.0000 |       0.0000 |       0.0000 |       0.0000 |       0.0000 |       0.0000 |       0.0000 |       0.0000 |       0.0000 |       0.0000 |       0.0000 |       0.0000 |       0.0000 |       0.0000 |       0.0000 |       0.0000 |       0.0000 |       0.0000 |       0.0000 |       0.0000 |       0.0000 |       0.0000 |       0.0000 |       0.0000 |       0.0000 |       0.0000 |       0.0000 |       0.0000 |       0.0000 |       0.0000 |       0.0000 |       0.0000 |       0.0000 |       0.0000 |       0.0000 |
dl2.accesses                                  4351 |         4351 |         4456 |         4456 |         9682 |         9682 |         9635 |         9635 |        22737 |        22737 |        23026 |        23026 |        56504 |        56504 |        56721 |        56721 |       137335 |       137335 |       137836 |       137836 |       299527 |       299527 |       299913 |       299913 |       673788 |       673788 |       673324 |       673324 |      1459571 |      1459571 |      1453464 |      1453464 |      3235248 |      3235248 |      3216355 |      3216355 |     14363602 |     14363602 |      6630192 |      6630192 |     23156998 |     23156998 |     13682176 |     13682176 |
dl2.hits                                      2928 |         2928 |         3069 |         3069 |         7740 |         7740 |         7730 |         7730 |        19780 |        19780 |        20111 |        20111 |        51511 |        51511 |        51765 |        51765 |       128240 |       128240 |       128778 |       128778 |       282245 |       282245 |       282669 |       282669 |       640120 |       640120 |       639694 |       639694 |      1393135 |      1392519 |      1387066 |      1350707 |      3102659 |      2866522 |      2971819 |      2793266 |     13008688 |     12971599 |      5325770 |      5260262 |     20439898 |     20319149 |     11014142 |     10834405 |
dl2.misses                                    1423 |         1423 |         1387 |         1387 |         1942 |         1942 |         1905 |         1905 |         2957 |         2957 |         2915 |         2915 |         4993 |         4993 |         4956 |         4956 |         9095 |         9095 |         9058 |         9058 |        17282 |        17282 |        17244 |        17244 |        33668 |        33668 |        33630 |        33630 |        66436 |        67052 |        66398 |       102757 |       132589 |       368726 |       244536 |       423089 |      1354914 |      1392003 |      1304422 |      1369930 |      2717100 |      2837849 |      2668034 |      2847771 |
dl2.replacements                               282 |          282 |            0 |            0 |          289 |          289 |            0 |            0 |          294 |          294 |            0 |            0 |          284 |          284 |            0 |            0 |          290 |          290 |            0 |            0 |          284 |          284 |            0 |            0 |          286 |          286 |            0 |            0 |          286 |         1516 |            0 |        37221 |         1517 |       303190 |       113464 |       357553 |      1223842 |      1326467 |      1173350 |      1304394 |      2586028 |      2772313 |      2536962 |      2782235 |
dl2.writebacks                                 154 |          154 |            0 |            0 |          153 |          153 |            0 |            0 |          154 |          154 |            0 |            0 |          152 |          152 |            0 |            0 |          152 |          152 |            0 |            0 |          152 |          152 |            0 |            0 |          152 |          152 |            0 |            0 |          152 |         1240 |            0 |        36992 |         1247 |       295450 |       113235 |       344306 |       733642 |       807319 |       713121 |       809611 |      1563726 |      1730719 |      1547492 |      1761525 |
dl2.invalidations                                0 |            0 |            0 |            0 |            0 |            0 |            0 |            0 |            0 |            0 |            0 |            0 |            0 |            0 |            0 |            0 |            0 |            0 |            0 |            0 |            0 |            0 |            0 |            0 |            0 |            0 |            0 |            0 |            0 |            0 |            0 |            0 |            0 |            0 |            0 |            0 |            0 |            0 |            0 |            0 |            0 |            0 |            0 |            0 |
dl2.miss_rate                               0.3271 |       0.3271 |       0.3113 |       0.3113 |       0.2006 |       0.2006 |       0.1977 |       0.1977 |       0.1301 |       0.1301 |       0.1266 |       0.1266 |       0.0884 |       0.0884 |       0.0874 |       0.0874 |       0.0662 |       0.0662 |       0.0657 |       0.0657 |       0.0577 |       0.0577 |       0.0575 |       0.0575 |       0.0500 |       0.0500 |       0.0499 |       0.0499 |       0.0455 |       0.0459 |       0.0457 |       0.0707 |       0.0410 |       0.1140 |       0.0760 |       0.1315 |       0.0943 |       0.0969 |       0.1967 |       0.2066 |       0.1173 |       0.1225 |       0.1950 |       0.2081 |
dl2.repl_rate                               0.0648 |       0.0648 |       0.0000 |       0.0000 |       0.0298 |       0.0298 |       0.0000 |       0.0000 |       0.0129 |       0.0129 |       0.0000 |       0.0000 |       0.0050 |       0.0050 |       0.0000 |       0.0000 |       0.0021 |       0.0021 |       0.0000 |       0.0000 |       0.0009 |       0.0009 |       0.0000 |       0.0000 |       0.0004 |       0.0004 |       0.0000 |       0.0000 |       0.0002 |       0.0010 |       0.0000 |       0.0256 |       0.0005 |       0.0937 |       0.0353 |       0.1112 |       0.0852 |       0.0923 |       0.1770 |       0.1967 |       0.1117 |       0.1197 |       0.1854 |       0.2033 |
dl2.wb_rate                                 0.0354 |       0.0354 |       0.0000 |       0.0000 |       0.0158 |       0.0158 |       0.0000 |       0.0000 |       0.0068 |       0.0068 |       0.0000 |       0.0000 |       0.0027 |       0.0027 |       0.0000 |       0.0000 |       0.0011 |       0.0011 |       0.0000 |       0.0000 |       0.0005 |       0.0005 |       0.0000 |       0.0000 |       0.0002 |       0.0002 |       0.0000 |       0.0000 |       0.0001 |       0.0008 |       0.0000 |       0.0255 |       0.0004 |       0.0913 |       0.0352 |       0.1070 |       0.0511 |       0.0562 |       0.1076 |       0.1221 |       0.0675 |       0.0747 |       0.1131 |       0.1287 |
dl2.inv_rate                                0.0000 |       0.0000 |       0.0000 |       0.0000 |       0.0000 |       0.0000 |       0.0000 |       0.0000 |       0.0000 |       0.0000 |       0.0000 |       0.0000 |       0.0000 |       0.0000 |       0.0000 |       0.0000 |       0.0000 |       0.0000 |       0.0000 |       0.0000 |       0.0000 |       0.0000 |       0.0000 |       0.0000 |       0.0000 |       0.0000 |       0.0000 |       0.0000 |       0.0000 |       0.0000 |       0.0000 |       0.0000 |       0.0000 |       0.0000 |       0.0000 |       0.0000 |       0.0000 |       0.0000 |       0.0000 |       0.0000 |       0.0000 |       0.0000 |       0.0000 |       0.0000 |
itlb.accesses                               458580 |       458580 |       458580 |       458580 |       970856 |       970856 |       970856 |       970856 |      2127285 |      2127285 |      2127285 |      2127285 |      4620531 |      4620531 |      4620531 |      4620531 |     10059794 |     10059794 |     10059794 |     10059794 |     20901553 |     20901553 |     20901553 |     20901553 |     44230773 |     44230773 |     44230773 |     44230773 |     92116015 |     92116015 |     92116015 |     92116015 |    194209452 |    194209452 |    194209452 |    194209452 |    576302931 |    576302931 |    576302931 |    576302931 |   1361256486 |   1361256486 |   1361256486 |   1361256486 |
itlb.hits                                   458569 |       458569 |       458569 |       458569 |       970845 |       970845 |       970845 |       970845 |      2127274 |      2127274 |      2127274 |      2127274 |      4620520 |      4620520 |      4620520 |      4620520 |     10059783 |     10059783 |     10059783 |     10059783 |     20901542 |     20901542 |     20901542 |     20901542 |     44230762 |     44230762 |     44230762 |     44230762 |     92116004 |     92116004 |     92116004 |     92116004 |    194209441 |    194209441 |    194209441 |    194209441 |    576302920 |    576302920 |    576302920 |    576302920 |   1361256475 |   1361256475 |   1361256475 |   1361256475 |
itlb.misses                                     11 |           11 |           11 |           11 |           11 |           11 |           11 |           11 |           11 |           11 |           11 |           11 |           11 |           11 |           11 |           11 |           11 |           11 |           11 |           11 |           11 |           11 |           11 |           11 |           11 |           11 |           11 |           11 |           11 |           11 |           11 |           11 |           11 |           11 |           11 |           11 |           11 |           11 |           11 |           11 |           11 |           11 |           11 |           11 |
itlb.replacements                                0 |            0 |            0 |            0 |            0 |            0 |            0 |            0 |            0 |            0 |            0 |            0 |            0 |            0 |            0 |            0 |            0 |            0 |            0 |            0 |            0 |            0 |            0 |            0 |            0 |            0 |            0 |            0 |            0 |            0 |            0 |            0 |            0 |            0 |            0 |            0 |            0 |            0 |            0 |            0 |            0 |            0 |            0 |            0 |
itlb.writebacks                                  0 |            0 |            0 |            0 |            0 |            0 |            0 |            0 |            0 |            0 |            0 |            0 |            0 |            0 |            0 |            0 |            0 |            0 |            0 |            0 |            0 |            0 |            0 |            0 |            0 |            0 |            0 |            0 |            0 |            0 |            0 |            0 |            0 |            0 |            0 |            0 |            0 |            0 |            0 |            0 |            0 |            0 |            0 |            0 |
itlb.invalidations                               0 |            0 |            0 |            0 |            0 |            0 |            0 |            0 |            0 |            0 |            0 |            0 |            0 |            0 |            0 |            0 |            0 |            0 |            0 |            0 |            0 |            0 |            0 |            0 |            0 |            0 |            0 |            0 |            0 |            0 |            0 |            0 |            0 |            0 |            0 |            0 |            0 |            0 |            0 |            0 |            0 |            0 |            0 |            0 |
itlb.miss_rate                              0.0000 |       0.0000 |       0.0000 |       0.0000 |       0.0000 |       0.0000 |       0.0000 |       0.0000 |       0.0000 |       0.0000 |       0.0000 |       0.0000 |       0.0000 |       0.0000 |       0.0000 |       0.0000 |       0.0000 |       0.0000 |       0.0000 |       0.0000 |       0.0000 |       0.0000 |       0.0000 |       0.0000 |       0.0000 |       0.0000 |       0.0000 |       0.0000 |       0.0000 |       0.0000 |       0.0000 |       0.0000 |       0.0000 |       0.0000 |       0.0000 |       0.0000 |       0.0000 |       0.0000 |       0.0000 |       0.0000 |       0.0000 |       0.0000 |       0.0000 |       0.0000 |
itlb.repl_rate                              0.0000 |       0.0000 |       0.0000 |       0.0000 |       0.0000 |       0.0000 |       0.0000 |       0.0000 |       0.0000 |       0.0000 |       0.0000 |       0.0000 |       0.0000 |       0.0000 |       0.0000 |       0.0000 |       0.0000 |       0.0000 |       0.0000 |       0.0000 |       0.0000 |       0.0000 |       0.0000 |       0.0000 |       0.0000 |       0.0000 |       0.0000 |       0.0000 |       0.0000 |       0.0000 |       0.0000 |       0.0000 |       0.0000 |       0.0000 |       0.0000 |       0.0000 |       0.0000 |       0.0000 |       0.0000 |       0.0000 |       0.0000 |       0.0000 |       0.0000 |       0.0000 |
itlb.wb_rate                                0.0000 |       0.0000 |       0.0000 |       0.0000 |       0.0000 |       0.0000 |       0.0000 |       0.0000 |       0.0000 |       0.0000 |       0.0000 |       0.0000 |       0.0000 |       0.0000 |       0.0000 |       0.0000 |       0.0000 |       0.0000 |       0.0000 |       0.0000 |       0.0000 |       0.0000 |       0.0000 |       0.0000 |       0.0000 |       0.0000 |       0.0000 |       0.0000 |       0.0000 |       0.0000 |       0.0000 |       0.0000 |       0.0000 |       0.0000 |       0.0000 |       0.0000 |       0.0000 |       0.0000 |       0.0000 |       0.0000 |       0.0000 |       0.0000 |       0.0000 |       0.0000 |
itlb.inv_rate                               0.0000 |       0.0000 |       0.0000 |       0.0000 |       0.0000 |       0.0000 |       0.0000 |       0.0000 |       0.0000 |       0.0000 |       0.0000 |       0.0000 |       0.0000 |       0.0000 |       0.0000 |       0.0000 |       0.0000 |       0.0000 |       0.0000 |       0.0000 |       0.0000 |       0.0000 |       0.0000 |       0.0000 |       0.0000 |       0.0000 |       0.0000 |       0.0000 |       0.0000 |       0.0000 |       0.0000 |       0.0000 |       0.0000 |       0.0000 |       0.0000 |       0.0000 |       0.0000 |       0.0000 |       0.0000 |       0.0000 |       0.0000 |       0.0000 |       0.0000 |       0.0000 |
dtlb.accesses                               138771 |       138771 |       138771 |       138771 |       288094 |       288094 |       288094 |       288094 |       614274 |       614274 |       614274 |       614274 |      1303222 |      1303222 |      1303222 |      1303222 |      2774078 |      2774078 |      2774078 |      2774078 |      5761993 |      5761993 |      5761993 |      5761993 |     12075293 |     12075293 |     12075293 |     12075293 |     25121993 |     25121993 |     25121993 |     25121993 |     52500972 |     52500972 |     52500972 |     52500972 |    142796585 |    142796585 |    142796585 |    142796585 |    316206996 |    316206996 |    316206996 |    316206996 |
dtlb.hits                                   138759 |       138759 |       138759 |       138759 |       288078 |       288078 |       288078 |       288078 |       614250 |       614250 |       614250 |       614250 |      1303182 |      1303182 |      1303182 |      1303182 |      2774006 |      2774006 |      2774006 |      2774006 |      5761832 |      5761832 |      5761832 |      5761832 |     12074472 |     12074472 |     12074472 |     12074472 |     25119850 |     25119850 |     25119850 |     25119850 |     52495309 |     52495309 |     52495309 |     52495309 |    142782627 |    142782627 |    142782627 |    142782627 |    316177821 |    316177821 |    316177821 |    316177821 |
dtlb.misses                                     12 |           12 |           12 |           12 |           16 |           16 |           16 |           16 |           24 |           24 |           24 |           24 |           40 |           40 |           40 |           40 |           72 |           72 |           72 |           72 |          161 |          161 |          161 |          161 |          821 |          821 |          821 |          821 |         2143 |         2143 |         2143 |         2143 |         5663 |         5663 |         5663 |         5663 |        13958 |        13958 |        13958 |        13958 |        29175 |        29175 |        29175 |        29175 |
dtlb.replacements                                0 |            0 |            0 |            0 |            0 |            0 |            0 |            0 |            0 |            0 |            0 |            0 |            0 |            0 |            0 |            0 |            0 |            0 |            0 |            0 |           33 |           33 |           33 |           33 |          693 |          693 |          693 |          693 |         2015 |         2015 |         2015 |         2015 |         5535 |         5535 |         5535 |         5535 |        13830 |        13830 |        13830 |        13830 |        29047 |        29047 |        29047 |        29047 |
dtlb.writebacks                                  0 |            0 |            0 |            0 |            0 |            0 |            0 |            0 |            0 |            0 |            0 |            0 |            0 |            0 |            0 |            0 |            0 |            0 |            0 |            0 |           31 |           31 |           31 |           31 |          691 |          691 |          691 |          691 |         2013 |         2013 |         2013 |         2013 |         5533 |         5533 |         5533 |         5533 |        11766 |        11766 |        11766 |        11766 |        24923 |        24923 |        24923 |        24923 |
dtlb.invalidations                               0 |            0 |            0 |            0 |            0 |            0 |            0 |            0 |            0 |            0 |            0 |            0 |            0 |            0 |            0 |            0 |            0 |            0 |            0 |            0 |            0 |            0 |            0 |            0 |            0 |            0 |            0 |            0 |            0 |            0 |            0 |            0 |            0 |            0 |            0 |            0 |            0 |            0 |            0 |            0 |            0 |            0 |            0 |            0 |
dtlb.miss_rate                              0.0001 |       0.0001 |       0.0001 |       0.0001 |       0.0001 |       0.0001 |       0.0001 |       0.0001 |       0.0000 |       0.0000 |       0.0000 |       0.0000 |       0.0000 |       0.0000 |       0.0000 |       0.0000 |       0.0000 |       0.0000 |       0.0000 |       0.0000 |       0.0000 |       0.0000 |       0.0000 |       0.0000 |       0.0001 |       0.0001 |       0.0001 |       0.0001 |       0.0001 |       0.0001 |       0.0001 |       0.0001 |       0.0001 |       0.0001 |       0.0001 |       0.0001 |       0.0001 |       0.0001 |       0.0001 |       0.0001 |       0.0001 |       0.0001 |       0.0001 |       0.0001 |
dtlb.repl_rate                              0.0000 |       0.0000 |       0.0000 |       0.0000 |       0.0000 |       0.0000 |       0.0000 |       0.0000 |       0.0000 |       0.0000 |       0.0000 |       0.0000 |       0.0000 |       0.0000 |       0.0000 |       0.0000 |       0.0000 |       0.0000 |       0.0000 |       0.0000 |       0.0000 |       0.0000 |       0.0000 |       0.0000 |       0.0001 |       0.0001 |       0.0001 |       0.0001 |       0.0001 |       0.0001 |       0.0001 |       0.0001 |       0.0001 |       0.0001 |       0.0001 |       0.0001 |       0.0001 |       0.0001 |       0.0001 |       0.0001 |       0.0001 |       0.0001 |       0.0001 |       0.0001 |
dtlb.wb_rate                                0.0000 |       0.0000 |       0.0000 |       0.0000 |       0.0000 |       0.0000 |       0.0000 |       0.0000 |       0.0000 |       0.0000 |       0.0000 |       0.0000 |       0.0000 |       0.0000 |       0.0000 |       0.0000 |       0.0000 |       0.0000 |       0.0000 |       0.0000 |       0.0000 |       0.0000 |       0.0000 |       0.0000 |       0.0001 |       0.0001 |       0.0001 |       0.0001 |       0.0001 |       0.0001 |       0.0001 |       0.0001 |       0.0001 |       0.0001 |       0.0001 |       0.0001 |       0.0001 |       0.0001 |       0.0001 |       0.0001 |       0.0001 |       0.0001 |       0.0001 |       0.0001 |
dtlb.inv_rate                               0.0000 |       0.0000 |       0.0000 |       0.0000 |       0.0000 |       0.0000 |       0.0000 |       0.0000 |       0.0000 |       0.0000 |       0.0000 |       0.0000 |       0.0000 |       0.0000 |       0.0000 |       0.0000 |       0.0000 |       0.0000 |       0.0000 |       0.0000 |       0.0000 |       0.0000 |       0.0000 |       0.0000 |       0.0000 |       0.0000 |       0.0000 |       0.0000 |       0.0000 |       0.0000 |       0.0000 |       0.0000 |       0.0000 |       0.0000 |       0.0000 |       0.0000 |       0.0000 |       0.0000 |       0.0000 |       0.0000 |       0.0000 |       0.0000 |       0.0000 |       0.0000 |
ld_text_base                            0x00400000 |   0x00400000 |   0x00400000 |   0x00400000 |   0x00400000 |   0x00400000 |   0x00400000 |   0x00400000 |   0x00400000 |   0x00400000 |   0x00400000 |   0x00400000 |   0x00400000 |   0x00400000 |   0x00400000 |   0x00400000 |   0x00400000 |   0x00400000 |   0x00400000 |   0x00400000 |   0x00400000 |   0x00400000 |   0x00400000 |   0x00400000 |   0x00400000 |   0x00400000 |   0x00400000 |   0x00400000 |   0x00400000 |   0x00400000 |   0x00400000 |   0x00400000 |   0x00400000 |   0x00400000 |   0x00400000 |   0x00400000 |   0x00400000 |   0x00400000 |   0x00400000 |   0x00400000 |   0x00400000 |   0x00400000 |   0x00400000 |   0x00400000 |
ld_text_size                                 78480 |        78480 |        78480 |        78480 |        78512 |        78512 |        78512 |        78512 |        78528 |        78528 |        78528 |        78528 |        78544 |        78544 |        78544 |        78544 |        78544 |        78544 |        78544 |        78544 |        78544 |        78544 |        78544 |        78544 |        78544 |        78544 |        78544 |        78544 |        78544 |        78544 |        78544 |        78544 |        78544 |        78544 |        78544 |        78544 |        78544 |        78544 |        78544 |        78544 |        78544 |        78544 |        78544 |        78544 |
ld_data_base                            0x10000000 |   0x10000000 |   0x10000000 |   0x10000000 |   0x10000000 |   0x10000000 |   0x10000000 |   0x10000000 |   0x10000000 |   0x10000000 |   0x10000000 |   0x10000000 |   0x10000000 |   0x10000000 |   0x10000000 |   0x10000000 |   0x10000000 |   0x10000000 |   0x10000000 |   0x10000000 |   0x10000000 |   0x10000000 |   0x10000000 |   0x10000000 |   0x10000000 |   0x10000000 |   0x10000000 |   0x10000000 |   0x10000000 |   0x10000000 |   0x10000000 |   0x10000000 |   0x10000000 |   0x10000000 |   0x10000000 |   0x10000000 |   0x10000000 |   0x10000000 |   0x10000000 |   0x10000000 |   0x10000000 |   0x10000000 |   0x10000000 |   0x10000000 |
ld_data_size                                  8192 |         8192 |         8192 |         8192 |         8192 |         8192 |         8192 |         8192 |         8192 |         8192 |         8192 |         8192 |         8192 |         8192 |         8192 |         8192 |         8192 |         8192 |         8192 |         8192 |         8192 |         8192 |         8192 |         8192 |         8192 |         8192 |         8192 |         8192 |         8192 |         8192 |         8192 |         8192 |         8192 |         8192 |         8192 |         8192 |         8192 |         8192 |         8192 |         8192 |         8192 |         8192 |         8192 |         8192 |
ld_stack_base                           0x7fffc000 |   0x7fffc000 |   0x7fffc000 |   0x7fffc000 |   0x7fffc000 |   0x7fffc000 |   0x7fffc000 |   0x7fffc000 |   0x7fffc000 |   0x7fffc000 |   0x7fffc000 |   0x7fffc000 |   0x7fffc000 |   0x7fffc000 |   0x7fffc000 |   0x7fffc000 |   0x7fffc000 |   0x7fffc000 |   0x7fffc000 |   0x7fffc000 |   0x7fffc000 |   0x7fffc000 |   0x7fffc000 |   0x7fffc000 |   0x7fffc000 |   0x7fffc000 |   0x7fffc000 |   0x7fffc000 |   0x7fffc000 |   0x7fffc000 |   0x7fffc000 |   0x7fffc000 |   0x7fffc000 |   0x7fffc000 |   0x7fffc000 |   0x7fffc000 |   0x7fffc000 |   0x7fffc000 |   0x7fffc000 |   0x7fffc000 |   0x7fffc000 |   0x7fffc000 |   0x7fffc000 |   0x7fffc000 |
ld_stack_size                                16384 |        16384 |        16384 |        16384 |        16384 |        16384 |        16384 |        16384 |        16384 |        16384 |        16384 |        16384 |        16384 |        16384 |        16384 |        16384 |        16384 |        16384 |        16384 |        16384 |        16384 |        16384 |        16384 |        16384 |        16384 |        16384 |        16384 |        16384 |        16384 |        16384 |        16384 |        16384 |        16384 |        16384 |        16384 |        16384 |        16384 |        16384 |        16384 |        16384 |        16384 |        16384 |        16384 |        16384 |
ld_prog_entry                           0x00400140 |   0x00400140 |   0x00400140 |   0x00400140 |   0x00400140 |   0x00400140 |   0x00400140 |   0x00400140 |   0x00400140 |   0x00400140 |   0x00400140 |   0x00400140 |   0x00400140 |   0x00400140 |   0x00400140 |   0x00400140 |   0x00400140 |   0x00400140 |   0x00400140 |   0x00400140 |   0x00400140 |   0x00400140 |   0x00400140 |   0x00400140 |   0x00400140 |   0x00400140 |   0x00400140 |   0x00400140 |   0x00400140 |   0x00400140 |   0x00400140 |   0x00400140 |   0x00400140 |   0x00400140 |   0x00400140 |   0x00400140 |   0x00400140 |   0x00400140 |   0x00400140 |   0x00400140 |   0x00400140 |   0x00400140 |   0x00400140 |   0x00400140 |
ld_environ_base                         0x7fff8000 |   0x7fff8000 |   0x7fff8000 |   0x7fff8000 |   0x7fff8000 |   0x7fff8000 |   0x7fff8000 |   0x7fff8000 |   0x7fff8000 |   0x7fff8000 |   0x7fff8000 |   0x7fff8000 |   0x7fff8000 |   0x7fff8000 |   0x7fff8000 |   0x7fff8000 |   0x7fff8000 |   0x7fff8000 |   0x7fff8000 |   0x7fff8000 |   0x7fff8000 |   0x7fff8000 |   0x7fff8000 |   0x7fff8000 |   0x7fff8000 |   0x7fff8000 |   0x7fff8000 |   0x7fff8000 |   0x7fff8000 |   0x7fff8000 |   0x7fff8000 |   0x7fff8000 |   0x7fff8000 |   0x7fff8000 |   0x7fff8000 |   0x7fff8000 |   0x7fff8000 |   0x7fff8000 |   0x7fff8000 |   0x7fff8000 |   0x7fff8000 |   0x7fff8000 |   0x7fff8000 |   0x7fff8000 |
ld_target_big_endian                             0 |            0 |            0 |            0 |            0 |            0 |            0 |            0 |            0 |            0 |            0 |            0 |            0 |            0 |            0 |            0 |            0 |            0 |            0 |            0 |            0 |            0 |            0 |            0 |            0 |            0 |            0 |            0 |            0 |            0 |            0 |            0 |            0 |            0 |            0 |            0 |            0 |            0 |            0 |            0 |            0 |            0 |            0 |            0 |
mem.page_count                                  32 |           32 |           32 |           32 |           36 |           36 |           36 |           36 |           44 |           44 |           44 |           44 |           60 |           60 |           60 |           60 |           92 |           92 |           92 |           92 |          156 |          156 |          156 |          156 |          284 |          284 |          284 |          284 |          540 |          540 |          540 |          540 |         1052 |         1052 |         1052 |         1052 |         4147 |         4147 |         4147 |         4147 |         8268 |         8268 |         8268 |         8268 |
mem.page_mem                                  128k |         128k |         128k |         128k |         144k |         144k |         144k |         144k |         176k |         176k |         176k |         176k |         240k |         240k |         240k |         240k |         368k |         368k |         368k |         368k |         624k |         624k |         624k |         624k |        1136k |        1136k |        1136k |        1136k |        2160k |        2160k |        2160k |        2160k |        4208k |        4208k |        4208k |        4208k |       16588k |       16588k |       16588k |       16588k |       33072k |       33072k |       33072k |       33072k |
mem.ptab_misses                                 32 |           32 |           32 |           32 |           36 |           36 |           36 |           36 |           44 |           44 |           44 |           44 |           60 |           60 |           60 |           60 |           92 |           92 |           92 |           92 |          156 |          156 |          156 |          156 |          284 |          284 |          284 |          284 |          540 |          540 |          540 |          540 |         1052 |         1052 |         1052 |         1052 |        22561 |        22561 |        22561 |        22561 |        26682 |        26682 |        26682 |        26682 |
mem.ptab_accesses                          2597394 |      2597394 |      2597394 |      2597394 |      4945336 |      4945336 |      4945336 |      4945336 |     10223508 |     10223508 |     10223508 |     10223508 |     21574484 |     21574484 |     21574484 |     21574484 |     46273248 |     46273248 |     46273248 |     46273248 |     95616114 |     95616114 |     95616114 |     95616114 |    201559594 |    201559594 |    201559594 |    201559594 |    419193962 |    419193962 |    419193962 |    419193962 |    882325668 |    882325668 |    882325668 |    882325668 |   2591290810 |   2591290810 |   2591290810 |   2591290810 |   6077925852 |   6077925852 |   6077925852 |   6077925852 |
mem.ptab_miss_rate                          0.0000 |       0.0000 |       0.0000 |       0.0000 |       0.0000 |       0.0000 |       0.0000 |       0.0000 |       0.0000 |       0.0000 |       0.0000 |       0.0000 |       0.0000 |       0.0000 |       0.0000 |       0.0000 |       0.0000 |       0.0000 |       0.0000 |       0.0000 |       0.0000 |       0.0000 |       0.0000 |       0.0000 |       0.0000 |       0.0000 |       0.0000 |       0.0000 |       0.0000 |       0.0000 |       0.0000 |       0.0000 |       0.0000 |       0.0000 |       0.0000 |       0.0000 |       0.0000 |       0.0000 |       0.0000 |       0.0000 |       0.0000 |       0.0000 |       0.0000 |       0.0000 |
-------------------------------------------------------------------------------------------------
sim-bpred                                     4096 |         4096 |         4096 |         4096 |         4096 |         4096 |         4096 |         8192 |         8192 |         8192 |         8192 |         8192 |         8192 |         8192 |        16384 |        16384 |        16384 |        16384 |        16384 |        16384 |        16384 |        32768 |        32768 |        32768 |        32768 |        32768 |        32768 |        32768 |        65536 |        65536 |        65536 |        65536 |        65536 |        65536 |        65536 |       131072 |       131072 |       131072 |       131072 |       131072 |       131072 |       131072 |       262144 |       262144 |       262144 |       262144 |       262144 |       262144 |       262144 |       524288 |       524288 |       524288 |       524288 |       524288 |       524288 |       524288 |      1048576 |      1048576 |      1048576 |      1048576 |      1048576 |      1048576 |      1048576 |      2097152 |      2097152 |      2097152 |      2097152 |      2097152 |      2097152 |      2097152 |      4194304 |      4194304 |      4194304 |      4194304 |      4194304 |      4194304 |      4194304 |
-bpred bimod -bpred:bimod 512
-bpred bimod -bpred:bimod 1024
-bpred bimod -bpred:bimod 2048
-bpred 2lev -bpred:2lev 1 512 10 1
-bpred 2lev -bpred:2lev 1 1024 10 1
-bpred 2lev -bpred:2lev 1 2048 10 1
-bpred 2lev -bpred:2lev 1 4096 10 1
-------------------------------------------------------------------------------------------------
sim_num_insn                                458580 |       458580 |       458580 |       458580 |       458580 |       458580 |       458580 |       970856 |       970856 |       970856 |       970856 |       970856 |       970856 |       970856 |      2127285 |      2127285 |      2127285 |      2127285 |      2127285 |      2127285 |      2127285 |      4620531 |      4620531 |      4620531 |      4620531 |      4620531 |      4620531 |      4620531 |     10059794 |     10059794 |     10059794 |     10059794 |     10059794 |     10059794 |     10059794 |     20901553 |     20901553 |     20901553 |     20901553 |     20901553 |     20901553 |     20901553 |     44230773 |     44230773 |     44230773 |     44230773 |     44230773 |     44230773 |     44230773 |     92116015 |     92116015 |     92116015 |     92116015 |     92116015 |     92116015 |     92116015 |    194209452 |    194209452 |    194209452 |    194209452 |    194209452 |    194209452 |    194209452 |    576302931 |    576302931 |    576302931 |    576302931 |    576302931 |    576302931 |    576302931 |   1361256486 |   1361256486 |   1361256486 |   1361256486 |   1361256486 |   1361256486 |   1361256486 |
sim_num_refs                                122305 |       122305 |       122305 |       122305 |       122305 |       122305 |       122305 |       255244 |       255244 |       255244 |       255244 |       255244 |       255244 |       255244 |       548656 |       548656 |       548656 |       548656 |       548656 |       548656 |       548656 |      1172068 |      1172068 |      1172068 |      1172068 |      1172068 |      1172068 |      1172068 |      2511852 |      2511852 |      2511852 |      2511852 |      2511852 |      2511852 |      2511852 |      5237623 |      5237623 |      5237623 |      5237623 |      5237623 |      5237623 |      5237623 |     11026635 |     11026635 |     11026635 |     11026635 |     11026635 |     11026635 |     11026635 |     23024759 |     23024759 |     23024759 |     23024759 |     23024759 |     23024759 |     23024759 |     48306586 |     48306586 |     48306586 |     48306586 |     48306586 |     48306586 |     48306586 |    134407894 |    134407894 |    134407894 |    134407894 |    134407894 |    134407894 |    134407894 |    299429697 |    299429697 |    299429697 |    299429697 |    299429697 |    299429697 |    299429697 |
sim_elapsed_time                                 1 |            1 |            1 |            1 |            1 |            1 |            1 |            1 |            1 |            1 |            1 |            1 |            1 |            1 |            1 |            1 |            1 |            1 |            1 |            1 |            1 |            1 |            1 |            1 |            1 |            1 |            1 |            1 |            2 |            1 |            1 |            1 |            2 |            1 |            1 |            3 |            2 |            3 |            3 |            2 |            3 |            2 |            6 |            5 |            5 |            6 |            5 |            5 |            6 |           11 |           11 |           11 |           11 |           12 |           11 |           11 |           23 |           24 |           23 |           23 |           24 |           23 |           24 |           72 |           71 |           72 |           74 |           73 |           74 |           73 |          171 |          171 |          170 |          177 |          176 |          177 |          177 |
sim_inst_rate                          458580.0000 |  458580.0000 |  458580.0000 |  458580.0000 |  458580.0000 |  458580.0000 |  458580.0000 |  970856.0000 |  970856.0000 |  970856.0000 |  970856.0000 |  970856.0000 |  970856.0000 |  970856.0000 | 2127285.0000 | 2127285.0000 | 2127285.0000 | 2127285.0000 | 2127285.0000 | 2127285.0000 | 2127285.0000 | 4620531.0000 | 4620531.0000 | 4620531.0000 | 4620531.0000 | 4620531.0000 | 4620531.0000 | 4620531.0000 | 5029897.0000 |10059794.0000 |10059794.0000 |10059794.0000 | 5029897.0000 |10059794.0000 |10059794.0000 | 6967184.3333 |10450776.5000 | 6967184.3333 | 6967184.3333 |10450776.5000 | 6967184.3333 |10450776.5000 | 7371795.5000 | 8846154.6000 | 8846154.6000 | 7371795.5000 | 8846154.6000 | 8846154.6000 | 7371795.5000 | 8374183.1818 | 8374183.1818 | 8374183.1818 | 8374183.1818 | 7676334.5833 | 8374183.1818 | 8374183.1818 | 8443889.2174 | 8092060.5000 | 8443889.2174 | 8443889.2174 | 8092060.5000 | 8443889.2174 | 8092060.5000 | 8004207.3750 | 8116942.6901 | 8004207.3750 | 7787877.4459 | 7894560.6986 | 7787877.4459 | 7894560.6986 | 7960564.2456 | 7960564.2456 | 8007391.0941 | 7690714.6102 | 7734411.8523 | 7690714.6102 | 7690714.6102 |
sim_num_branches                             75182 |        75182 |        75182 |        75182 |        75182 |        75182 |        75182 |       160554 |       160554 |       160554 |       160554 |       160554 |       160554 |       160554 |       354388 |       354388 |       354388 |       354388 |       354388 |       354388 |       354388 |       774006 |       774006 |       774006 |       774006 |       774006 |       774006 |       774006 |      1690185 |      1690185 |      1690185 |      1690185 |      1690185 |      1690185 |      1690185 |      3530232 |      3530232 |      3530232 |      3530232 |      3530232 |      3530232 |      3530232 |      7492814 |      7492814 |      7492814 |      7492814 |      7492814 |      7492814 |      7492814 |     15666825 |     15666825 |     15666825 |     15666825 |     15666825 |     15666825 |     15666825 |     33132121 |     33132121 |     33132121 |     33132121 |     33132121 |     33132121 |     33132121 |    104432859 |    104432859 |    104432859 |    104432859 |    104432859 |    104432859 |    104432859 |    267024939 |    267024939 |    267024939 |    267024939 |    267024939 |    267024939 |    267024939 |
sim_IPB                                     6.0996 |       6.0996 |       6.0996 |       6.0996 |       6.0996 |       6.0996 |       6.0996 |       6.0469 |       6.0469 |       6.0469 |       6.0469 |       6.0469 |       6.0469 |       6.0469 |       6.0027 |       6.0027 |       6.0027 |       6.0027 |       6.0027 |       6.0027 |       6.0027 |       5.9696 |       5.9696 |       5.9696 |       5.9696 |       5.9696 |       5.9696 |       5.9696 |       5.9519 |       5.9519 |       5.9519 |       5.9519 |       5.9519 |       5.9519 |       5.9519 |       5.9207 |       5.9207 |       5.9207 |       5.9207 |       5.9207 |       5.9207 |       5.9207 |       5.9031 |       5.9031 |       5.9031 |       5.9031 |       5.9031 |       5.9031 |       5.9031 |       5.8797 |       5.8797 |       5.8797 |       5.8797 |       5.8797 |       5.8797 |       5.8797 |       5.8617 |       5.8617 |       5.8617 |       5.8617 |       5.8617 |       5.8617 |       5.8617 |       5.5184 |       5.5184 |       5.5184 |       5.5184 |       5.5184 |       5.5184 |       5.5184 |       5.0979 |       5.0979 |       5.0979 |       5.0979 |       5.0979 |       5.0979 |       5.0979 |
bpred_bimod.lookups                          75182 |        75182 |        75182 |xxxxxxxxxxxxx |xxxxxxxxxxxxx |xxxxxxxxxxxxx |xxxxxxxxxxxxx |       160554 |       160554 |       160554 |xxxxxxxxxxxxx |xxxxxxxxxxxxx |xxxxxxxxxxxxx |xxxxxxxxxxxxx |       354388 |       354388 |       354388 |xxxxxxxxxxxxx |xxxxxxxxxxxxx |xxxxxxxxxxxxx |xxxxxxxxxxxxx |       774006 |       774006 |       774006 |xxxxxxxxxxxxx |xxxxxxxxxxxxx |xxxxxxxxxxxxx |xxxxxxxxxxxxx |      1690185 |      1690185 |      1690185 |xxxxxxxxxxxxx |xxxxxxxxxxxxx |xxxxxxxxxxxxx |xxxxxxxxxxxxx |      3530232 |      3530232 |      3530232 |xxxxxxxxxxxxx |xxxxxxxxxxxxx |xxxxxxxxxxxxx |xxxxxxxxxxxxx |      7492814 |      7492814 |      7492814 |xxxxxxxxxxxxx |xxxxxxxxxxxxx |xxxxxxxxxxxxx |xxxxxxxxxxxxx |     15666825 |     15666825 |     15666825 |xxxxxxxxxxxxx |xxxxxxxxxxxxx |xxxxxxxxxxxxx |xxxxxxxxxxxxx |     33132121 |     33132121 |     33132121 |xxxxxxxxxxxxx |xxxxxxxxxxxxx |xxxxxxxxxxxxx |xxxxxxxxxxxxx |    104432859 |    104432859 |    104432859 |xxxxxxxxxxxxx |xxxxxxxxxxxxx |xxxxxxxxxxxxx |xxxxxxxxxxxxx |    267024939 |    267024939 |    267024939 |
bpred_bimod.updates                          75182 |        75182 |        75182 |xxxxxxxxxxxxx |xxxxxxxxxxxxx |xxxxxxxxxxxxx |xxxxxxxxxxxxx |       160554 |       160554 |       160554 |xxxxxxxxxxxxx |xxxxxxxxxxxxx |xxxxxxxxxxxxx |xxxxxxxxxxxxx |       354388 |       354388 |       354388 |xxxxxxxxxxxxx |xxxxxxxxxxxxx |xxxxxxxxxxxxx |xxxxxxxxxxxxx |       774006 |       774006 |       774006 |xxxxxxxxxxxxx |xxxxxxxxxxxxx |xxxxxxxxxxxxx |xxxxxxxxxxxxx |      1690185 |      1690185 |      1690185 |xxxxxxxxxxxxx |xxxxxxxxxxxxx |xxxxxxxxxxxxx |xxxxxxxxxxxxx |      3530232 |      3530232 |      3530232 |xxxxxxxxxxxxx |xxxxxxxxxxxxx |xxxxxxxxxxxxx |xxxxxxxxxxxxx |      7492814 |      7492814 |      7492814 |xxxxxxxxxxxxx |xxxxxxxxxxxxx |xxxxxxxxxxxxx |xxxxxxxxxxxxx |     15666825 |     15666825 |     15666825 |xxxxxxxxxxxxx |xxxxxxxxxxxxx |xxxxxxxxxxxxx |xxxxxxxxxxxxx |     33132121 |     33132121 |     33132121 |xxxxxxxxxxxxx |xxxxxxxxxxxxx |xxxxxxxxxxxxx |xxxxxxxxxxxxx |    104432859 |    104432859 |    104432859 |xxxxxxxxxxxxx |xxxxxxxxxxxxx |xxxxxxxxxxxxx |xxxxxxxxxxxxx |    267024939 |    267024939 |    267024939 |
bpred_bimod.addr_hits                        53236 |        53237 |        53237 |xxxxxxxxxxxxx |xxxxxxxxxxxxx |xxxxxxxxxxxxx |xxxxxxxxxxxxx |       112736 |       112735 |       112734 |xxxxxxxxxxxxx |xxxxxxxxxxxxx |xxxxxxxxxxxxx |xxxxxxxxxxxxx |       254216 |       254219 |       254219 |xxxxxxxxxxxxx |xxxxxxxxxxxxx |xxxxxxxxxxxxx |xxxxxxxxxxxxx |       563771 |       563770 |       563771 |xxxxxxxxxxxxx |xxxxxxxxxxxxx |xxxxxxxxxxxxx |xxxxxxxxxxxxx |      1250766 |      1250764 |      1250765 |xxxxxxxxxxxxx |xxxxxxxxxxxxx |xxxxxxxxxxxxx |xxxxxxxxxxxxx |      2585814 |      2585814 |      2585815 |xxxxxxxxxxxxx |xxxxxxxxxxxxx |xxxxxxxxxxxxx |xxxxxxxxxxxxx |      5498666 |      5498665 |      5498666 |xxxxxxxxxxxxx |xxxxxxxxxxxxx |xxxxxxxxxxxxx |xxxxxxxxxxxxx |     11358985 |     11358983 |     11358984 |xxxxxxxxxxxxx |xxxxxxxxxxxxx |xxxxxxxxxxxxx |xxxxxxxxxxxxx |     24156191 |     24156191 |     24156192 |xxxxxxxxxxxxx |xxxxxxxxxxxxx |xxxxxxxxxxxxx |xxxxxxxxxxxxx |     86031548 |     86031570 |     86031570 |xxxxxxxxxxxxx |xxxxxxxxxxxxx |xxxxxxxxxxxxx |xxxxxxxxxxxxx |    230025596 |    230025641 |    230025642 |
bpred_bimod.dir_hits                         53355 |        53354 |        53354 |xxxxxxxxxxxxx |xxxxxxxxxxxxx |xxxxxxxxxxxxx |xxxxxxxxxxxxx |       112855 |       112851 |       112850 |xxxxxxxxxxxxx |xxxxxxxxxxxxx |xxxxxxxxxxxxx |xxxxxxxxxxxxx |       254333 |       254334 |       254333 |xxxxxxxxxxxxx |xxxxxxxxxxxxx |xxxxxxxxxxxxx |xxxxxxxxxxxxx |       563889 |       563886 |       563886 |xxxxxxxxxxxxx |xxxxxxxxxxxxx |xxxxxxxxxxxxx |xxxxxxxxxxxxx |      1250880 |      1250876 |      1250877 |xxxxxxxxxxxxx |xxxxxxxxxxxxx |xxxxxxxxxxxxx |xxxxxxxxxxxxx |      2585931 |      2585929 |      2585929 |xxxxxxxxxxxxx |xxxxxxxxxxxxx |xxxxxxxxxxxxx |xxxxxxxxxxxxx |      5498786 |      5498783 |      5498783 |xxxxxxxxxxxxx |xxxxxxxxxxxxx |xxxxxxxxxxxxx |xxxxxxxxxxxxx |     11359106 |     11359102 |     11359102 |xxxxxxxxxxxxx |xxxxxxxxxxxxx |xxxxxxxxxxxxx |xxxxxxxxxxxxx |     24156310 |     24156309 |     24156309 |xxxxxxxxxxxxx |xxxxxxxxxxxxx |xxxxxxxxxxxxx |xxxxxxxxxxxxx |     86031711 |     86031730 |     86031729 |xxxxxxxxxxxxx |xxxxxxxxxxxxx |xxxxxxxxxxxxx |xxxxxxxxxxxxx |    230025758 |    230025800 |    230025801 |
bpred_bimod.misses                           21827 |        21828 |        21828 |xxxxxxxxxxxxx |xxxxxxxxxxxxx |xxxxxxxxxxxxx |xxxxxxxxxxxxx |        47699 |        47703 |        47704 |xxxxxxxxxxxxx |xxxxxxxxxxxxx |xxxxxxxxxxxxx |xxxxxxxxxxxxx |       100055 |       100054 |       100055 |xxxxxxxxxxxxx |xxxxxxxxxxxxx |xxxxxxxxxxxxx |xxxxxxxxxxxxx |       210117 |       210120 |       210120 |xxxxxxxxxxxxx |xxxxxxxxxxxxx |xxxxxxxxxxxxx |xxxxxxxxxxxxx |       439305 |       439309 |       439308 |xxxxxxxxxxxxx |xxxxxxxxxxxxx |xxxxxxxxxxxxx |xxxxxxxxxxxxx |       944301 |       944303 |       944303 |xxxxxxxxxxxxx |xxxxxxxxxxxxx |xxxxxxxxxxxxx |xxxxxxxxxxxxx |      1994028 |      1994031 |      1994031 |xxxxxxxxxxxxx |xxxxxxxxxxxxx |xxxxxxxxxxxxx |xxxxxxxxxxxxx |      4307719 |      4307723 |      4307723 |xxxxxxxxxxxxx |xxxxxxxxxxxxx |xxxxxxxxxxxxx |xxxxxxxxxxxxx |      8975811 |      8975812 |      8975812 |xxxxxxxxxxxxx |xxxxxxxxxxxxx |xxxxxxxxxxxxx |xxxxxxxxxxxxx |     18401148 |     18401129 |     18401130 |xxxxxxxxxxxxx |xxxxxxxxxxxxx |xxxxxxxxxxxxx |xxxxxxxxxxxxx |     36999181 |     36999139 |     36999138 |
bpred_bimod.jr_hits                             65 |           65 |           65 |xxxxxxxxxxxxx |xxxxxxxxxxxxx |xxxxxxxxxxxxx |xxxxxxxxxxxxx |           65 |           65 |           65 |xxxxxxxxxxxxx |xxxxxxxxxxxxx |xxxxxxxxxxxxx |xxxxxxxxxxxxx |           65 |           65 |           65 |xxxxxxxxxxxxx |xxxxxxxxxxxxx |xxxxxxxxxxxxx |xxxxxxxxxxxxx |           65 |           65 |           65 |xxxxxxxxxxxxx |xxxxxxxxxxxxx |xxxxxxxxxxxxx |xxxxxxxxxxxxx |           65 |           65 |           65 |xxxxxxxxxxxxx |xxxxxxxxxxxxx |xxxxxxxxxxxxx |xxxxxxxxxxxxx |           65 |           65 |           65 |xxxxxxxxxxxxx |xxxxxxxxxxxxx |xxxxxxxxxxxxx |xxxxxxxxxxxxx |           65 |           65 |           65 |xxxxxxxxxxxxx |xxxxxxxxxxxxx |xxxxxxxxxxxxx |xxxxxxxxxxxxx |           65 |           65 |           65 |xxxxxxxxxxxxx |xxxxxxxxxxxxx |xxxxxxxxxxxxx |xxxxxxxxxxxxx |           65 |           65 |           65 |xxxxxxxxxxxxx |xxxxxxxxxxxxx |xxxxxxxxxxxxx |xxxxxxxxxxxxx |          110 |          110 |          110 |xxxxxxxxxxxxx |xxxxxxxxxxxxx |xxxxxxxxxxxxx |xxxxxxxxxxxxx |          122 |          122 |          122 |
bpred_bimod.jr_seen                             65 |           65 |           65 |xxxxxxxxxxxxx |xxxxxxxxxxxxx |xxxxxxxxxxxxx |xxxxxxxxxxxxx |           65 |           65 |           65 |xxxxxxxxxxxxx |xxxxxxxxxxxxx |xxxxxxxxxxxxx |xxxxxxxxxxxxx |           65 |           65 |           65 |xxxxxxxxxxxxx |xxxxxxxxxxxxx |xxxxxxxxxxxxx |xxxxxxxxxxxxx |           65 |           65 |           65 |xxxxxxxxxxxxx |xxxxxxxxxxxxx |xxxxxxxxxxxxx |xxxxxxxxxxxxx |           65 |           65 |           65 |xxxxxxxxxxxxx |xxxxxxxxxxxxx |xxxxxxxxxxxxx |xxxxxxxxxxxxx |           65 |           65 |           65 |xxxxxxxxxxxxx |xxxxxxxxxxxxx |xxxxxxxxxxxxx |xxxxxxxxxxxxx |           65 |           65 |           65 |xxxxxxxxxxxxx |xxxxxxxxxxxxx |xxxxxxxxxxxxx |xxxxxxxxxxxxx |           65 |           65 |           65 |xxxxxxxxxxxxx |xxxxxxxxxxxxx |xxxxxxxxxxxxx |xxxxxxxxxxxxx |           65 |           65 |           65 |xxxxxxxxxxxxx |xxxxxxxxxxxxx |xxxxxxxxxxxxx |xxxxxxxxxxxxx |          111 |          111 |          111 |xxxxxxxxxxxxx |xxxxxxxxxxxxx |xxxxxxxxxxxxx |xxxxxxxxxxxxx |          123 |          123 |          123 |
bpred_bimod.jr_non_ras_hits.PP                   0 |            0 |            0 |xxxxxxxxxxxxx |xxxxxxxxxxxxx |xxxxxxxxxxxxx |xxxxxxxxxxxxx |            0 |            0 |            0 |xxxxxxxxxxxxx |xxxxxxxxxxxxx |xxxxxxxxxxxxx |xxxxxxxxxxxxx |            0 |            0 |            0 |xxxxxxxxxxxxx |xxxxxxxxxxxxx |xxxxxxxxxxxxx |xxxxxxxxxxxxx |            0 |            0 |            0 |xxxxxxxxxxxxx |xxxxxxxxxxxxx |xxxxxxxxxxxxx |xxxxxxxxxxxxx |            0 |            0 |            0 |xxxxxxxxxxxxx |xxxxxxxxxxxxx |xxxxxxxxxxxxx |xxxxxxxxxxxxx |            0 |            0 |            0 |xxxxxxxxxxxxx |xxxxxxxxxxxxx |xxxxxxxxxxxxx |xxxxxxxxxxxxx |            0 |            0 |            0 |xxxxxxxxxxxxx |xxxxxxxxxxxxx |xxxxxxxxxxxxx |xxxxxxxxxxxxx |            0 |            0 |            0 |xxxxxxxxxxxxx |xxxxxxxxxxxxx |xxxxxxxxxxxxx |xxxxxxxxxxxxx |            0 |            0 |            0 |xxxxxxxxxxxxx |xxxxxxxxxxxxx |xxxxxxxxxxxxx |xxxxxxxxxxxxx |            0 |            0 |            0 |xxxxxxxxxxxxx |xxxxxxxxxxxxx |xxxxxxxxxxxxx |xxxxxxxxxxxxx |            0 |            0 |            0 |
bpred_bimod.jr_non_ras_seen.PP                   0 |            0 |            0 |xxxxxxxxxxxxx |xxxxxxxxxxxxx |xxxxxxxxxxxxx |xxxxxxxxxxxxx |            0 |            0 |            0 |xxxxxxxxxxxxx |xxxxxxxxxxxxx |xxxxxxxxxxxxx |xxxxxxxxxxxxx |            0 |            0 |            0 |xxxxxxxxxxxxx |xxxxxxxxxxxxx |xxxxxxxxxxxxx |xxxxxxxxxxxxx |            0 |            0 |            0 |xxxxxxxxxxxxx |xxxxxxxxxxxxx |xxxxxxxxxxxxx |xxxxxxxxxxxxx |            0 |            0 |            0 |xxxxxxxxxxxxx |xxxxxxxxxxxxx |xxxxxxxxxxxxx |xxxxxxxxxxxxx |            0 |            0 |            0 |xxxxxxxxxxxxx |xxxxxxxxxxxxx |xxxxxxxxxxxxx |xxxxxxxxxxxxx |            0 |            0 |            0 |xxxxxxxxxxxxx |xxxxxxxxxxxxx |xxxxxxxxxxxxx |xxxxxxxxxxxxx |            0 |            0 |            0 |xxxxxxxxxxxxx |xxxxxxxxxxxxx |xxxxxxxxxxxxx |xxxxxxxxxxxxx |            0 |            0 |            0 |xxxxxxxxxxxxx |xxxxxxxxxxxxx |xxxxxxxxxxxxx |xxxxxxxxxxxxx |            1 |            1 |            1 |xxxxxxxxxxxxx |xxxxxxxxxxxxx |xxxxxxxxxxxxx |xxxxxxxxxxxxx |            1 |            1 |            1 |
bpred_bimod.bpred_addr_rate                 0.7081 |       0.7081 |       0.7081 |xxxxxxxxxxxxx |xxxxxxxxxxxxx |xxxxxxxxxxxxx |xxxxxxxxxxxxx |       0.7022 |       0.7022 |       0.7022 |xxxxxxxxxxxxx |xxxxxxxxxxxxx |xxxxxxxxxxxxx |xxxxxxxxxxxxx |       0.7173 |       0.7173 |       0.7173 |xxxxxxxxxxxxx |xxxxxxxxxxxxx |xxxxxxxxxxxxx |xxxxxxxxxxxxx |       0.7284 |       0.7284 |       0.7284 |xxxxxxxxxxxxx |xxxxxxxxxxxxx |xxxxxxxxxxxxx |xxxxxxxxxxxxx |       0.7400 |       0.7400 |       0.7400 |xxxxxxxxxxxxx |xxxxxxxxxxxxx |xxxxxxxxxxxxx |xxxxxxxxxxxxx |       0.7325 |       0.7325 |       0.7325 |xxxxxxxxxxxxx |xxxxxxxxxxxxx |xxxxxxxxxxxxx |xxxxxxxxxxxxx |       0.7339 |       0.7339 |       0.7339 |xxxxxxxxxxxxx |xxxxxxxxxxxxx |xxxxxxxxxxxxx |xxxxxxxxxxxxx |       0.7250 |       0.7250 |       0.7250 |xxxxxxxxxxxxx |xxxxxxxxxxxxx |xxxxxxxxxxxxx |xxxxxxxxxxxxx |       0.7291 |       0.7291 |       0.7291 |xxxxxxxxxxxxx |xxxxxxxxxxxxx |xxxxxxxxxxxxx |xxxxxxxxxxxxx |       0.8238 |       0.8238 |       0.8238 |xxxxxxxxxxxxx |xxxxxxxxxxxxx |xxxxxxxxxxxxx |xxxxxxxxxxxxx |       0.8614 |       0.8614 |       0.8614 |
bpred_bimod.bpred_dir_rate                  0.7097 |       0.7097 |       0.7097 |xxxxxxxxxxxxx |xxxxxxxxxxxxx |xxxxxxxxxxxxx |xxxxxxxxxxxxx |       0.7029 |       0.7029 |       0.7029 |xxxxxxxxxxxxx |xxxxxxxxxxxxx |xxxxxxxxxxxxx |xxxxxxxxxxxxx |       0.7177 |       0.7177 |       0.7177 |xxxxxxxxxxxxx |xxxxxxxxxxxxx |xxxxxxxxxxxxx |xxxxxxxxxxxxx |       0.7285 |       0.7285 |       0.7285 |xxxxxxxxxxxxx |xxxxxxxxxxxxx |xxxxxxxxxxxxx |xxxxxxxxxxxxx |       0.7401 |       0.7401 |       0.7401 |xxxxxxxxxxxxx |xxxxxxxxxxxxx |xxxxxxxxxxxxx |xxxxxxxxxxxxx |       0.7325 |       0.7325 |       0.7325 |xxxxxxxxxxxxx |xxxxxxxxxxxxx |xxxxxxxxxxxxx |xxxxxxxxxxxxx |       0.7339 |       0.7339 |       0.7339 |xxxxxxxxxxxxx |xxxxxxxxxxxxx |xxxxxxxxxxxxx |xxxxxxxxxxxxx |       0.7250 |       0.7250 |       0.7250 |xxxxxxxxxxxxx |xxxxxxxxxxxxx |xxxxxxxxxxxxx |xxxxxxxxxxxxx |       0.7291 |       0.7291 |       0.7291 |xxxxxxxxxxxxx |xxxxxxxxxxxxx |xxxxxxxxxxxxx |xxxxxxxxxxxxx |       0.8238 |       0.8238 |       0.8238 |xxxxxxxxxxxxx |xxxxxxxxxxxxx |xxxxxxxxxxxxx |xxxxxxxxxxxxx |       0.8614 |       0.8614 |       0.8614 |
bpred_bimod.bpred_jr_rate                   1.0000 |       1.0000 |       1.0000 |xxxxxxxxxxxxx |xxxxxxxxxxxxx |xxxxxxxxxxxxx |xxxxxxxxxxxxx |       1.0000 |       1.0000 |       1.0000 |xxxxxxxxxxxxx |xxxxxxxxxxxxx |xxxxxxxxxxxxx |xxxxxxxxxxxxx |       1.0000 |       1.0000 |       1.0000 |xxxxxxxxxxxxx |xxxxxxxxxxxxx |xxxxxxxxxxxxx |xxxxxxxxxxxxx |       1.0000 |       1.0000 |       1.0000 |xxxxxxxxxxxxx |xxxxxxxxxxxxx |xxxxxxxxxxxxx |xxxxxxxxxxxxx |       1.0000 |       1.0000 |       1.0000 |xxxxxxxxxxxxx |xxxxxxxxxxxxx |xxxxxxxxxxxxx |xxxxxxxxxxxxx |       1.0000 |       1.0000 |       1.0000 |xxxxxxxxxxxxx |xxxxxxxxxxxxx |xxxxxxxxxxxxx |xxxxxxxxxxxxx |       1.0000 |       1.0000 |       1.0000 |xxxxxxxxxxxxx |xxxxxxxxxxxxx |xxxxxxxxxxxxx |xxxxxxxxxxxxx |       1.0000 |       1.0000 |       1.0000 |xxxxxxxxxxxxx |xxxxxxxxxxxxx |xxxxxxxxxxxxx |xxxxxxxxxxxxx |       1.0000 |       1.0000 |       1.0000 |xxxxxxxxxxxxx |xxxxxxxxxxxxx |xxxxxxxxxxxxx |xxxxxxxxxxxxx |       0.9910 |       0.9910 |       0.9910 |xxxxxxxxxxxxx |xxxxxxxxxxxxx |xxxxxxxxxxxxx |xxxxxxxxxxxxx |       0.9919 |       0.9919 |       0.9919 |
bpred_bimod.bpred_jr_non_ras_rate.PP       <error: |      <error: |      <error: |xxxxxxxxxxxxx |xxxxxxxxxxxxx |xxxxxxxxxxxxx |xxxxxxxxxxxxx |      <error: |      <error: |      <error: |xxxxxxxxxxxxx |xxxxxxxxxxxxx |xxxxxxxxxxxxx |xxxxxxxxxxxxx |      <error: |      <error: |      <error: |xxxxxxxxxxxxx |xxxxxxxxxxxxx |xxxxxxxxxxxxx |xxxxxxxxxxxxx |      <error: |      <error: |      <error: |xxxxxxxxxxxxx |xxxxxxxxxxxxx |xxxxxxxxxxxxx |xxxxxxxxxxxxx |      <error: |      <error: |      <error: |xxxxxxxxxxxxx |xxxxxxxxxxxxx |xxxxxxxxxxxxx |xxxxxxxxxxxxx |      <error: |      <error: |      <error: |xxxxxxxxxxxxx |xxxxxxxxxxxxx |xxxxxxxxxxxxx |xxxxxxxxxxxxx |      <error: |      <error: |      <error: |xxxxxxxxxxxxx |xxxxxxxxxxxxx |xxxxxxxxxxxxx |xxxxxxxxxxxxx |      <error: |      <error: |      <error: |xxxxxxxxxxxxx |xxxxxxxxxxxxx |xxxxxxxxxxxxx |xxxxxxxxxxxxx |      <error: |      <error: |      <error: |xxxxxxxxxxxxx |xxxxxxxxxxxxx |xxxxxxxxxxxxx |xxxxxxxxxxxxx |       0.0000 |       0.0000 |       0.0000 |xxxxxxxxxxxxx |xxxxxxxxxxxxx |xxxxxxxxxxxxx |xxxxxxxxxxxxx |       0.0000 |       0.0000 |       0.0000 |
bpred_bimod.retstack_pushes                     67 |           67 |           67 |xxxxxxxxxxxxx |xxxxxxxxxxxxx |xxxxxxxxxxxxx |xxxxxxxxxxxxx |           67 |           67 |           67 |xxxxxxxxxxxxx |xxxxxxxxxxxxx |xxxxxxxxxxxxx |xxxxxxxxxxxxx |           67 |           67 |           67 |xxxxxxxxxxxxx |xxxxxxxxxxxxx |xxxxxxxxxxxxx |xxxxxxxxxxxxx |           67 |           67 |           67 |xxxxxxxxxxxxx |xxxxxxxxxxxxx |xxxxxxxxxxxxx |xxxxxxxxxxxxx |           67 |           67 |           67 |xxxxxxxxxxxxx |xxxxxxxxxxxxx |xxxxxxxxxxxxx |xxxxxxxxxxxxx |           67 |           67 |           67 |xxxxxxxxxxxxx |xxxxxxxxxxxxx |xxxxxxxxxxxxx |xxxxxxxxxxxxx |           67 |           67 |           67 |xxxxxxxxxxxxx |xxxxxxxxxxxxx |xxxxxxxxxxxxx |xxxxxxxxxxxxx |           67 |           67 |           67 |xxxxxxxxxxxxx |xxxxxxxxxxxxx |xxxxxxxxxxxxx |xxxxxxxxxxxxx |           67 |           67 |           67 |xxxxxxxxxxxxx |xxxxxxxxxxxxx |xxxxxxxxxxxxx |xxxxxxxxxxxxx |          112 |          112 |          112 |xxxxxxxxxxxxx |xxxxxxxxxxxxx |xxxxxxxxxxxxx |xxxxxxxxxxxxx |          124 |          124 |          124 |
bpred_bimod.retstack_pops                       65 |           65 |           65 |xxxxxxxxxxxxx |xxxxxxxxxxxxx |xxxxxxxxxxxxx |xxxxxxxxxxxxx |           65 |           65 |           65 |xxxxxxxxxxxxx |xxxxxxxxxxxxx |xxxxxxxxxxxxx |xxxxxxxxxxxxx |           65 |           65 |           65 |xxxxxxxxxxxxx |xxxxxxxxxxxxx |xxxxxxxxxxxxx |xxxxxxxxxxxxx |           65 |           65 |           65 |xxxxxxxxxxxxx |xxxxxxxxxxxxx |xxxxxxxxxxxxx |xxxxxxxxxxxxx |           65 |           65 |           65 |xxxxxxxxxxxxx |xxxxxxxxxxxxx |xxxxxxxxxxxxx |xxxxxxxxxxxxx |           65 |           65 |           65 |xxxxxxxxxxxxx |xxxxxxxxxxxxx |xxxxxxxxxxxxx |xxxxxxxxxxxxx |           65 |           65 |           65 |xxxxxxxxxxxxx |xxxxxxxxxxxxx |xxxxxxxxxxxxx |xxxxxxxxxxxxx |           65 |           65 |           65 |xxxxxxxxxxxxx |xxxxxxxxxxxxx |xxxxxxxxxxxxx |xxxxxxxxxxxxx |           65 |           65 |           65 |xxxxxxxxxxxxx |xxxxxxxxxxxxx |xxxxxxxxxxxxx |xxxxxxxxxxxxx |          110 |          110 |          110 |xxxxxxxxxxxxx |xxxxxxxxxxxxx |xxxxxxxxxxxxx |xxxxxxxxxxxxx |          122 |          122 |          122 |
bpred_bimod.used_ras.PP                         65 |           65 |           65 |xxxxxxxxxxxxx |xxxxxxxxxxxxx |xxxxxxxxxxxxx |xxxxxxxxxxxxx |           65 |           65 |           65 |xxxxxxxxxxxxx |xxxxxxxxxxxxx |xxxxxxxxxxxxx |xxxxxxxxxxxxx |           65 |           65 |           65 |xxxxxxxxxxxxx |xxxxxxxxxxxxx |xxxxxxxxxxxxx |xxxxxxxxxxxxx |           65 |           65 |           65 |xxxxxxxxxxxxx |xxxxxxxxxxxxx |xxxxxxxxxxxxx |xxxxxxxxxxxxx |           65 |           65 |           65 |xxxxxxxxxxxxx |xxxxxxxxxxxxx |xxxxxxxxxxxxx |xxxxxxxxxxxxx |           65 |           65 |           65 |xxxxxxxxxxxxx |xxxxxxxxxxxxx |xxxxxxxxxxxxx |xxxxxxxxxxxxx |           65 |           65 |           65 |xxxxxxxxxxxxx |xxxxxxxxxxxxx |xxxxxxxxxxxxx |xxxxxxxxxxxxx |           65 |           65 |           65 |xxxxxxxxxxxxx |xxxxxxxxxxxxx |xxxxxxxxxxxxx |xxxxxxxxxxxxx |           65 |           65 |           65 |xxxxxxxxxxxxx |xxxxxxxxxxxxx |xxxxxxxxxxxxx |xxxxxxxxxxxxx |          110 |          110 |          110 |xxxxxxxxxxxxx |xxxxxxxxxxxxx |xxxxxxxxxxxxx |xxxxxxxxxxxxx |          122 |          122 |          122 |
bpred_bimod.ras_hits.PP                         65 |           65 |           65 |xxxxxxxxxxxxx |xxxxxxxxxxxxx |xxxxxxxxxxxxx |xxxxxxxxxxxxx |           65 |           65 |           65 |xxxxxxxxxxxxx |xxxxxxxxxxxxx |xxxxxxxxxxxxx |xxxxxxxxxxxxx |           65 |           65 |           65 |xxxxxxxxxxxxx |xxxxxxxxxxxxx |xxxxxxxxxxxxx |xxxxxxxxxxxxx |           65 |           65 |           65 |xxxxxxxxxxxxx |xxxxxxxxxxxxx |xxxxxxxxxxxxx |xxxxxxxxxxxxx |           65 |           65 |           65 |xxxxxxxxxxxxx |xxxxxxxxxxxxx |xxxxxxxxxxxxx |xxxxxxxxxxxxx |           65 |           65 |           65 |xxxxxxxxxxxxx |xxxxxxxxxxxxx |xxxxxxxxxxxxx |xxxxxxxxxxxxx |           65 |           65 |           65 |xxxxxxxxxxxxx |xxxxxxxxxxxxx |xxxxxxxxxxxxx |xxxxxxxxxxxxx |           65 |           65 |           65 |xxxxxxxxxxxxx |xxxxxxxxxxxxx |xxxxxxxxxxxxx |xxxxxxxxxxxxx |           65 |           65 |           65 |xxxxxxxxxxxxx |xxxxxxxxxxxxx |xxxxxxxxxxxxx |xxxxxxxxxxxxx |          110 |          110 |          110 |xxxxxxxxxxxxx |xxxxxxxxxxxxx |xxxxxxxxxxxxx |xxxxxxxxxxxxx |          122 |          122 |          122 |
bpred_bimod.ras_rate.PP                     1.0000 |       1.0000 |       1.0000 |xxxxxxxxxxxxx |xxxxxxxxxxxxx |xxxxxxxxxxxxx |xxxxxxxxxxxxx |       1.0000 |       1.0000 |       1.0000 |xxxxxxxxxxxxx |xxxxxxxxxxxxx |xxxxxxxxxxxxx |xxxxxxxxxxxxx |       1.0000 |       1.0000 |       1.0000 |xxxxxxxxxxxxx |xxxxxxxxxxxxx |xxxxxxxxxxxxx |xxxxxxxxxxxxx |       1.0000 |       1.0000 |       1.0000 |xxxxxxxxxxxxx |xxxxxxxxxxxxx |xxxxxxxxxxxxx |xxxxxxxxxxxxx |       1.0000 |       1.0000 |       1.0000 |xxxxxxxxxxxxx |xxxxxxxxxxxxx |xxxxxxxxxxxxx |xxxxxxxxxxxxx |       1.0000 |       1.0000 |       1.0000 |xxxxxxxxxxxxx |xxxxxxxxxxxxx |xxxxxxxxxxxxx |xxxxxxxxxxxxx |       1.0000 |       1.0000 |       1.0000 |xxxxxxxxxxxxx |xxxxxxxxxxxxx |xxxxxxxxxxxxx |xxxxxxxxxxxxx |       1.0000 |       1.0000 |       1.0000 |xxxxxxxxxxxxx |xxxxxxxxxxxxx |xxxxxxxxxxxxx |xxxxxxxxxxxxx |       1.0000 |       1.0000 |       1.0000 |xxxxxxxxxxxxx |xxxxxxxxxxxxx |xxxxxxxxxxxxx |xxxxxxxxxxxxx |       1.0000 |       1.0000 |       1.0000 |xxxxxxxxxxxxx |xxxxxxxxxxxxx |xxxxxxxxxxxxx |xxxxxxxxxxxxx |       1.0000 |       1.0000 |       1.0000 |
bpred_2lev.lookups                   xxxxxxxxxxxxx |xxxxxxxxxxxxx |xxxxxxxxxxxxx |        75182 |        75182 |        75182 |        75182 |xxxxxxxxxxxxx |xxxxxxxxxxxxx |xxxxxxxxxxxxx |       160554 |       160554 |       160554 |       160554 |xxxxxxxxxxxxx |xxxxxxxxxxxxx |xxxxxxxxxxxxx |       354388 |       354388 |       354388 |       354388 |xxxxxxxxxxxxx |xxxxxxxxxxxxx |xxxxxxxxxxxxx |       774006 |       774006 |       774006 |       774006 |xxxxxxxxxxxxx |xxxxxxxxxxxxx |xxxxxxxxxxxxx |      1690185 |      1690185 |      1690185 |      1690185 |xxxxxxxxxxxxx |xxxxxxxxxxxxx |xxxxxxxxxxxxx |      3530232 |      3530232 |      3530232 |      3530232 |xxxxxxxxxxxxx |xxxxxxxxxxxxx |xxxxxxxxxxxxx |      7492814 |      7492814 |      7492814 |      7492814 |xxxxxxxxxxxxx |xxxxxxxxxxxxx |xxxxxxxxxxxxx |     15666825 |     15666825 |     15666825 |     15666825 |xxxxxxxxxxxxx |xxxxxxxxxxxxx |xxxxxxxxxxxxx |     33132121 |     33132121 |     33132121 |     33132121 |xxxxxxxxxxxxx |xxxxxxxxxxxxx |xxxxxxxxxxxxx |    104432859 |    104432859 |    104432859 |    104432859 |xxxxxxxxxxxxx |xxxxxxxxxxxxx |xxxxxxxxxxxxx |    267024939 |    267024939 |    267024939 |    267024939 |
[...]
bpred_2lev.retstack_pops             xxxxxxxxxxxxx |xxxxxxxxxxxxx |xxxxxxxxxxxxx |           65 |           65 |           65 |           65 |xxxxxxxxxxxxx |xxxxxxxxxxxxx |xxxxxxxxxxxxx |           65 |           65 |           65 |           65 |xxxxxxxxxxxxx |xxxxxxxxxxxxx |xxxxxxxxxxxxx |           65 |           65 |           65 |           65 |xxxxxxxxxxxxx |xxxxxxxxxxxxx |xxxxxxxxxxxxx |           65 |           65 |           65 |           65 |xxxxxxxxxxxxx |xxxxxxxxxxxxx |xxxxxxxxxxxxx |           65 |           65 |           65 |           65 |xxxxxxxxxxxxx |xxxxxxxxxxxxx |xxxxxxxxxxxxx |           65 |           65 |           65 |           65 |xxxxxxxxxxxxx |xxxxxxxxxxxxx |xxxxxxxxxxxxx |           65 |           65 |           65 |           65 |xxxxxxxxxxxxx |xxxxxxxxxxxxx |xxxxxxxxxxxxx |           65 |           65 |           65 |           65 |xxxxxxxxxxxxx |xxxxxxxxxxxxx |xxxxxxxxxxxxx |           65 |           65 |           65 |           65 |xxxxxxxxxxxxx |xxxxxxxxxxxxx |xxxxxxxxxxxxx |          110 |          110 |          110 |          110 |xxxxxxxxxxxxx |xxxxxxxxxxxxx |xxxxxxxxxxxxx |          122 |          122 |          122 |          122 |
bpred_2lev.used_ras.PP               xxxxxxxxxxxxx |xxxxxxxxxxxxx |xxxxxxxxxxxxx |           65 |           65 |           65 |           65 |xxxxxxxxxxxxx |xxxxxxxxxxxxx |xxxxxxxxxxxxx |           65 |           65 |           65 |           65 |xxxxxxxxxxxxx |xxxxxxxxxxxxx |xxxxxxxxxxxxx |           65 |           65 |           65 |           65 |xxxxxxxxxxxxx |xxxxxxxxxxxxx |xxxxxxxxxxxxx |           65 |           65 |           65 |           65 |xxxxxxxxxxxxx |xxxxxxxxxxxxx |xxxxxxxxxxxxx |           65 |           65 |           65 |           65 |xxxxxxxxxxxxx |xxxxxxxxxxxxx |xxxxxxxxxxxxx |           65 |           65 |           65 |           65 |xxxxxxxxxxxxx |xxxxxxxxxxxxx |xxxxxxxxxxxxx |           65 |           65 |           65 |           65 |xxxxxxxxxxxxx |xxxxxxxxxxxxx |xxxxxxxxxxxxx |           65 |           65 |           65 |           65 |xxxxxxxxxxxxx |xxxxxxxxxxxxx |xxxxxxxxxxxxx |           65 |           65 |           65 |           65 |xxxxxxxxxxxxx |xxxxxxxxxxxxx |xxxxxxxxxxxxx |          110 |          110 |          110 |          110 |xxxxxxxxxxxxx |xxxxxxxxxxxxx |xxxxxxxxxxxxx |          122 |          122 |          122 |          122 |
bpred_2lev.ras_hits.PP               xxxxxxxxxxxxx |xxxxxxxxxxxxx |xxxxxxxxxxxxx |           65 |           65 |           65 |           65 |xxxxxxxxxxxxx |xxxxxxxxxxxxx |xxxxxxxxxxxxx |           65 |           65 |           65 |           65 |xxxxxxxxxxxxx |xxxxxxxxxxxxx |xxxxxxxxxxxxx |           65 |           65 |           65 |           65 |xxxxxxxxxxxxx |xxxxxxxxxxxxx |xxxxxxxxxxxxx |           65 |           65 |           65 |           65 |xxxxxxxxxxxxx |xxxxxxxxxxxxx |xxxxxxxxxxxxx |           65 |           65 |           65 |           65 |xxxxxxxxxxxxx |xxxxxxxxxxxxx |xxxxxxxxxxxxx |           65 |           65 |           65 |           65 |xxxxxxxxxxxxx |xxxxxxxxxxxxx |xxxxxxxxxxxxx |           65 |           65 |           65 |           65 |xxxxxxxxxxxxx |xxxxxxxxxxxxx |xxxxxxxxxxxxx |           65 |           65 |           65 |           65 |xxxxxxxxxxxxx |xxxxxxxxxxxxx |xxxxxxxxxxxxx |           65 |           65 |           65 |           65 |xxxxxxxxxxxxx |xxxxxxxxxxxxx |xxxxxxxxxxxxx |          110 |          110 |          110 |          110 |xxxxxxxxxxxxx |xxxxxxxxxxxxx |xxxxxxxxxxxxx |          122 |          122 |          122 |          122 |
bpred_2lev.ras_rate.PP               xxxxxxxxxxxxx |xxxxxxxxxxxxx |xxxxxxxxxxxxx |       1.0000 |       1.0000 |       1.0000 |       1.0000 |xxxxxxxxxxxxx |xxxxxxxxxxxxx |xxxxxxxxxxxxx |       1.0000 |       1.0000 |       1.0000 |       1.0000 |xxxxxxxxxxxxx |xxxxxxxxxxxxx |xxxxxxxxxxxxx |       1.0000 |       1.0000 |       1.0000 |       1.0000 |xxxxxxxxxxxxx |xxxxxxxxxxxxx |xxxxxxxxxxxxx |       1.0000 |       1.0000 |       1.0000 |       1.0000 |xxxxxxxxxxxxx |xxxxxxxxxxxxx |xxxxxxxxxxxxx |       1.0000 |       1.0000 |       1.0000 |       1.0000 |xxxxxxxxxxxxx |xxxxxxxxxxxxx |xxxxxxxxxxxxx |       1.0000 |       1.0000 |       1.0000 |       1.0000 |xxxxxxxxxxxxx |xxxxxxxxxxxxx |xxxxxxxxxxxxx |       1.0000 |       1.0000 |       1.0000 |       1.0000 |xxxxxxxxxxxxx |xxxxxxxxxxxxx |xxxxxxxxxxxxx |       1.0000 |       1.0000 |       1.0000 |       1.0000 |xxxxxxxxxxxxx |xxxxxxxxxxxxx |xxxxxxxxxxxxx |       1.0000 |       1.0000 |       1.0000 |       1.0000 |xxxxxxxxxxxxx |xxxxxxxxxxxxx |xxxxxxxxxxxxx |       1.0000 |       1.0000 |       1.0000 |       1.0000 |xxxxxxxxxxxxx |xxxxxxxxxxxxx |xxxxxxxxxxxxx |       1.0000 |       1.0000 |       1.0000 |       1.0000 |

Command list: 
	sslittle-na-sstrix-gcc -Wall -O3 -funroll-loops -finline-functions  -DRANDOM_SIZE=4096 -DOFFSET=6 -DSORT=multi_quicksort_seq sorts/multi_quicksort_seq231952523.c simpleMain.c -o multi_quicksort_seq1689782864
	sim-cache -cache:dl1 dl1:256:32:1:l -cache:dl2 dl2:131072:32:1:l -cache:il1 il1:256:32:1:l -cache:il2 dl2 multi_quicksort_seq1689782864
	sim-cache -cache:dl1 dl1:256:32:1:l -cache:dl2 dl2:65536:32:1:l -cache:il1 il1:256:32:1:l -cache:il2 dl2 multi_quicksort_seq1689782864
	sim-cache -cache:dl1 dl1:1:32:256:l -cache:dl2 dl2:1:32:131072:l -cache:il1 il1:1:32:256:l -cache:il2 dl2 multi_quicksort_seq1689782864
	sim-cache -cache:dl1 dl1:1:32:256:l -cache:dl2 dl2:1:32:65536:l -cache:il1 il1:1:32:256:l -cache:il2 dl2 multi_quicksort_seq1689782864
	sim-bpred -bpred bimod -bpred:bimod 512 multi_quicksort_seq1689782864
	sim-bpred -bpred bimod -bpred:bimod 1024 multi_quicksort_seq1689782864
	sim-bpred -bpred bimod -bpred:bimod 2048 multi_quicksort_seq1689782864
	sim-bpred -bpred 2lev -bpred:2lev 1 512 10 1 multi_quicksort_seq1689782864
	sim-bpred -bpred 2lev -bpred:2lev 1 1024 10 1 multi_quicksort_seq1689782864
	sim-bpred -bpred 2lev -bpred:2lev 1 2048 10 1 multi_quicksort_seq1689782864
	sim-bpred -bpred 2lev -bpred:2lev 1 4096 10 1 multi_quicksort_seq1689782864
	sslittle-na-sstrix-gcc -Wall -O3 -funroll-loops -finline-functions  -DRANDOM_SIZE=8192 -DOFFSET=6 -DSORT=multi_quicksort_seq sorts/multi_quicksort_seq231952523.c simpleMain.c -o multi_quicksort_seq1689782864
	sim-cache -cache:dl1 dl1:256:32:1:l -cache:dl2 dl2:131072:32:1:l -cache:il1 il1:256:32:1:l -cache:il2 dl2 multi_quicksort_seq1689782864
	sim-cache -cache:dl1 dl1:256:32:1:l -cache:dl2 dl2:65536:32:1:l -cache:il1 il1:256:32:1:l -cache:il2 dl2 multi_quicksort_seq1689782864
	sim-cache -cache:dl1 dl1:1:32:256:l -cache:dl2 dl2:1:32:131072:l -cache:il1 il1:1:32:256:l -cache:il2 dl2 multi_quicksort_seq1689782864
	sim-cache -cache:dl1 dl1:1:32:256:l -cache:dl2 dl2:1:32:65536:l -cache:il1 il1:1:32:256:l -cache:il2 dl2 multi_quicksort_seq1689782864
	sim-bpred -bpred bimod -bpred:bimod 512 multi_quicksort_seq1689782864
	sim-bpred -bpred bimod -bpred:bimod 1024 multi_quicksort_seq1689782864
	sim-bpred -bpred bimod -bpred:bimod 2048 multi_quicksort_seq1689782864
	sim-bpred -bpred 2lev -bpred:2lev 1 512 10 1 multi_quicksort_seq1689782864
	sim-bpred -bpred 2lev -bpred:2lev 1 1024 10 1 multi_quicksort_seq1689782864
	sim-bpred -bpred 2lev -bpred:2lev 1 2048 10 1 multi_quicksort_seq1689782864
	sim-bpred -bpred 2lev -bpred:2lev 1 4096 10 1 multi_quicksort_seq1689782864
	sslittle-na-sstrix-gcc -Wall -O3 -funroll-loops -finline-functions  -DRANDOM_SIZE=16384 -DOFFSET=6 -DSORT=multi_quicksort_seq sorts/multi_quicksort_seq231952523.c simpleMain.c -o multi_quicksort_seq1689782864
	sim-cache -cache:dl1 dl1:256:32:1:l -cache:dl2 dl2:131072:32:1:l -cache:il1 il1:256:32:1:l -cache:il2 dl2 multi_quicksort_seq1689782864
	sim-cache -cache:dl1 dl1:256:32:1:l -cache:dl2 dl2:65536:32:1:l -cache:il1 il1:256:32:1:l -cache:il2 dl2 multi_quicksort_seq1689782864
	sim-cache -cache:dl1 dl1:1:32:256:l -cache:dl2 dl2:1:32:131072:l -cache:il1 il1:1:32:256:l -cache:il2 dl2 multi_quicksort_seq1689782864
	sim-cache -cache:dl1 dl1:1:32:256:l -cache:dl2 dl2:1:32:65536:l -cache:il1 il1:1:32:256:l -cache:il2 dl2 multi_quicksort_seq1689782864
	sim-bpred -bpred bimod -bpred:bimod 512 multi_quicksort_seq1689782864
	sim-bpred -bpred bimod -bpred:bimod 1024 multi_quicksort_seq1689782864
	sim-bpred -bpred bimod -bpred:bimod 2048 multi_quicksort_seq1689782864
	sim-bpred -bpred 2lev -bpred:2lev 1 512 10 1 multi_quicksort_seq1689782864
	sim-bpred -bpred 2lev -bpred:2lev 1 1024 10 1 multi_quicksort_seq1689782864
	sim-bpred -bpred 2lev -bpred:2lev 1 2048 10 1 multi_quicksort_seq1689782864
	sim-bpred -bpred 2lev -bpred:2lev 1 4096 10 1 multi_quicksort_seq1689782864
	sslittle-na-sstrix-gcc -Wall -O3 -funroll-loops -finline-functions  -DRANDOM_SIZE=32768 -DOFFSET=6 -DSORT=multi_quicksort_seq sorts/multi_quicksort_seq231952523.c simpleMain.c -o multi_quicksort_seq1689782864
	sim-cache -cache:dl1 dl1:256:32:1:l -cache:dl2 dl2:131072:32:1:l -cache:il1 il1:256:32:1:l -cache:il2 dl2 multi_quicksort_seq1689782864
	sim-cache -cache:dl1 dl1:256:32:1:l -cache:dl2 dl2:65536:32:1:l -cache:il1 il1:256:32:1:l -cache:il2 dl2 multi_quicksort_seq1689782864
	sim-cache -cache:dl1 dl1:1:32:256:l -cache:dl2 dl2:1:32:131072:l -cache:il1 il1:1:32:256:l -cache:il2 dl2 multi_quicksort_seq1689782864
	sim-cache -cache:dl1 dl1:1:32:256:l -cache:dl2 dl2:1:32:65536:l -cache:il1 il1:1:32:256:l -cache:il2 dl2 multi_quicksort_seq1689782864
	sim-bpred -bpred bimod -bpred:bimod 512 multi_quicksort_seq1689782864
	sim-bpred -bpred bimod -bpred:bimod 1024 multi_quicksort_seq1689782864
	sim-bpred -bpred bimod -bpred:bimod 2048 multi_quicksort_seq1689782864
	sim-bpred -bpred 2lev -bpred:2lev 1 512 10 1 multi_quicksort_seq1689782864
	sim-bpred -bpred 2lev -bpred:2lev 1 1024 10 1 multi_quicksort_seq1689782864
	sim-bpred -bpred 2lev -bpred:2lev 1 2048 10 1 multi_quicksort_seq1689782864
	sim-bpred -bpred 2lev -bpred:2lev 1 4096 10 1 multi_quicksort_seq1689782864
	sslittle-na-sstrix-gcc -Wall -O3 -funroll-loops -finline-functions  -DRANDOM_SIZE=65536 -DOFFSET=6 -DSORT=multi_quicksort_seq sorts/multi_quicksort_seq231952523.c simpleMain.c -o multi_quicksort_seq1689782864
	sim-cache -cache:dl1 dl1:256:32:1:l -cache:dl2 dl2:131072:32:1:l -cache:il1 il1:256:32:1:l -cache:il2 dl2 multi_quicksort_seq1689782864
	sim-cache -cache:dl1 dl1:256:32:1:l -cache:dl2 dl2:65536:32:1:l -cache:il1 il1:256:32:1:l -cache:il2 dl2 multi_quicksort_seq1689782864
	sim-cache -cache:dl1 dl1:1:32:256:l -cache:dl2 dl2:1:32:131072:l -cache:il1 il1:1:32:256:l -cache:il2 dl2 multi_quicksort_seq1689782864
	sim-cache -cache:dl1 dl1:1:32:256:l -cache:dl2 dl2:1:32:65536:l -cache:il1 il1:1:32:256:l -cache:il2 dl2 multi_quicksort_seq1689782864
	sim-bpred -bpred bimod -bpred:bimod 512 multi_quicksort_seq1689782864
	sim-bpred -bpred bimod -bpred:bimod 1024 multi_quicksort_seq1689782864
	sim-bpred -bpred bimod -bpred:bimod 2048 multi_quicksort_seq1689782864
	sim-bpred -bpred 2lev -bpred:2lev 1 512 10 1 multi_quicksort_seq1689782864
	sim-bpred -bpred 2lev -bpred:2lev 1 1024 10 1 multi_quicksort_seq1689782864
	sim-bpred -bpred 2lev -bpred:2lev 1 2048 10 1 multi_quicksort_seq1689782864
	sim-bpred -bpred 2lev -bpred:2lev 1 4096 10 1 multi_quicksort_seq1689782864
	sslittle-na-sstrix-gcc -Wall -O3 -funroll-loops -finline-functions  -DRANDOM_SIZE=131072 -DOFFSET=6 -DSORT=multi_quicksort_seq sorts/multi_quicksort_seq231952523.c simpleMain.c -o multi_quicksort_seq1689782864
	sim-cache -cache:dl1 dl1:256:32:1:l -cache:dl2 dl2:131072:32:1:l -cache:il1 il1:256:32:1:l -cache:il2 dl2 multi_quicksort_seq1689782864
	sim-cache -cache:dl1 dl1:256:32:1:l -cache:dl2 dl2:65536:32:1:l -cache:il1 il1:256:32:1:l -cache:il2 dl2 multi_quicksort_seq1689782864
	sim-cache -cache:dl1 dl1:1:32:256:l -cache:dl2 dl2:1:32:131072:l -cache:il1 il1:1:32:256:l -cache:il2 dl2 multi_quicksort_seq1689782864
	sim-cache -cache:dl1 dl1:1:32:256:l -cache:dl2 dl2:1:32:65536:l -cache:il1 il1:1:32:256:l -cache:il2 dl2 multi_quicksort_seq1689782864
	sim-bpred -bpred bimod -bpred:bimod 512 multi_quicksort_seq1689782864
	sim-bpred -bpred bimod -bpred:bimod 1024 multi_quicksort_seq1689782864
	sim-bpred -bpred bimod -bpred:bimod 2048 multi_quicksort_seq1689782864
	sim-bpred -bpred 2lev -bpred:2lev 1 512 10 1 multi_quicksort_seq1689782864
	sim-bpred -bpred 2lev -bpred:2lev 1 1024 10 1 multi_quicksort_seq1689782864
	sim-bpred -bpred 2lev -bpred:2lev 1 2048 10 1 multi_quicksort_seq1689782864
	sim-bpred -bpred 2lev -bpred:2lev 1 4096 10 1 multi_quicksort_seq1689782864
	sslittle-na-sstrix-gcc -Wall -O3 -funroll-loops -finline-functions  -DRANDOM_SIZE=262144 -DOFFSET=6 -DSORT=multi_quicksort_seq sorts/multi_quicksort_seq231952523.c simpleMain.c -o multi_quicksort_seq1689782864
	sim-cache -cache:dl1 dl1:256:32:1:l -cache:dl2 dl2:131072:32:1:l -cache:il1 il1:256:32:1:l -cache:il2 dl2 multi_quicksort_seq1689782864
	sim-cache -cache:dl1 dl1:256:32:1:l -cache:dl2 dl2:65536:32:1:l -cache:il1 il1:256:32:1:l -cache:il2 dl2 multi_quicksort_seq1689782864
	sim-cache -cache:dl1 dl1:1:32:256:l -cache:dl2 dl2:1:32:131072:l -cache:il1 il1:1:32:256:l -cache:il2 dl2 multi_quicksort_seq1689782864
	sim-cache -cache:dl1 dl1:1:32:256:l -cache:dl2 dl2:1:32:65536:l -cache:il1 il1:1:32:256:l -cache:il2 dl2 multi_quicksort_seq1689782864
	sim-bpred -bpred bimod -bpred:bimod 512 multi_quicksort_seq1689782864
	sim-bpred -bpred bimod -bpred:bimod 1024 multi_quicksort_seq1689782864
	sim-bpred -bpred bimod -bpred:bimod 2048 multi_quicksort_seq1689782864
	sim-bpred -bpred 2lev -bpred:2lev 1 512 10 1 multi_quicksort_seq1689782864
	sim-bpred -bpred 2lev -bpred:2lev 1 1024 10 1 multi_quicksort_seq1689782864
	sim-bpred -bpred 2lev -bpred:2lev 1 2048 10 1 multi_quicksort_seq1689782864
	sim-bpred -bpred 2lev -bpred:2lev 1 4096 10 1 multi_quicksort_seq1689782864
	sslittle-na-sstrix-gcc -Wall -O3 -funroll-loops -finline-functions  -DRANDOM_SIZE=524288 -DOFFSET=6 -DSORT=multi_quicksort_seq sorts/multi_quicksort_seq231952523.c simpleMain.c -o multi_quicksort_seq1689782864
	sim-cache -cache:dl1 dl1:256:32:1:l -cache:dl2 dl2:131072:32:1:l -cache:il1 il1:256:32:1:l -cache:il2 dl2 multi_quicksort_seq1689782864
	sim-cache -cache:dl1 dl1:256:32:1:l -cache:dl2 dl2:65536:32:1:l -cache:il1 il1:256:32:1:l -cache:il2 dl2 multi_quicksort_seq1689782864
	sim-cache -cache:dl1 dl1:1:32:256:l -cache:dl2 dl2:1:32:131072:l -cache:il1 il1:1:32:256:l -cache:il2 dl2 multi_quicksort_seq1689782864
	sim-cache -cache:dl1 dl1:1:32:256:l -cache:dl2 dl2:1:32:65536:l -cache:il1 il1:1:32:256:l -cache:il2 dl2 multi_quicksort_seq1689782864
	sim-bpred -bpred bimod -bpred:bimod 512 multi_quicksort_seq1689782864
	sim-bpred -bpred bimod -bpred:bimod 1024 multi_quicksort_seq1689782864
	sim-bpred -bpred bimod -bpred:bimod 2048 multi_quicksort_seq1689782864
	sim-bpred -bpred 2lev -bpred:2lev 1 512 10 1 multi_quicksort_seq1689782864
	sim-bpred -bpred 2lev -bpred:2lev 1 1024 10 1 multi_quicksort_seq1689782864
	sim-bpred -bpred 2lev -bpred:2lev 1 2048 10 1 multi_quicksort_seq1689782864
	sim-bpred -bpred 2lev -bpred:2lev 1 4096 10 1 multi_quicksort_seq1689782864
	sslittle-na-sstrix-gcc -Wall -O3 -funroll-loops -finline-functions  -DRANDOM_SIZE=1048576 -DOFFSET=6 -DSORT=multi_quicksort_seq sorts/multi_quicksort_seq231952523.c simpleMain.c -o multi_quicksort_seq1689782864
	sim-cache -cache:dl1 dl1:256:32:1:l -cache:dl2 dl2:131072:32:1:l -cache:il1 il1:256:32:1:l -cache:il2 dl2 multi_quicksort_seq1689782864
	sim-cache -cache:dl1 dl1:256:32:1:l -cache:dl2 dl2:65536:32:1:l -cache:il1 il1:256:32:1:l -cache:il2 dl2 multi_quicksort_seq1689782864
	sim-cache -cache:dl1 dl1:1:32:256:l -cache:dl2 dl2:1:32:131072:l -cache:il1 il1:1:32:256:l -cache:il2 dl2 multi_quicksort_seq1689782864
	sim-cache -cache:dl1 dl1:1:32:256:l -cache:dl2 dl2:1:32:65536:l -cache:il1 il1:1:32:256:l -cache:il2 dl2 multi_quicksort_seq1689782864
	sim-bpred -bpred bimod -bpred:bimod 512 multi_quicksort_seq1689782864
	sim-bpred -bpred bimod -bpred:bimod 1024 multi_quicksort_seq1689782864
	sim-bpred -bpred bimod -bpred:bimod 2048 multi_quicksort_seq1689782864
	sim-bpred -bpred 2lev -bpred:2lev 1 512 10 1 multi_quicksort_seq1689782864
	sim-bpred -bpred 2lev -bpred:2lev 1 1024 10 1 multi_quicksort_seq1689782864
	sim-bpred -bpred 2lev -bpred:2lev 1 2048 10 1 multi_quicksort_seq1689782864
	sim-bpred -bpred 2lev -bpred:2lev 1 4096 10 1 multi_quicksort_seq1689782864
	sslittle-na-sstrix-gcc -Wall -O3 -funroll-loops -finline-functions  -DRANDOM_SIZE=2097152 -DOFFSET=6 -DSORT=multi_quicksort_seq sorts/multi_quicksort_seq231952523.c simpleMain.c -o multi_quicksort_seq1689782864
	sim-cache -cache:dl1 dl1:256:32:1:l -cache:dl2 dl2:131072:32:1:l -cache:il1 il1:256:32:1:l -cache:il2 dl2 multi_quicksort_seq1689782864
	sim-cache -cache:dl1 dl1:256:32:1:l -cache:dl2 dl2:65536:32:1:l -cache:il1 il1:256:32:1:l -cache:il2 dl2 multi_quicksort_seq1689782864
	sim-cache -cache:dl1 dl1:1:32:256:l -cache:dl2 dl2:1:32:131072:l -cache:il1 il1:1:32:256:l -cache:il2 dl2 multi_quicksort_seq1689782864
	sim-cache -cache:dl1 dl1:1:32:256:l -cache:dl2 dl2:1:32:65536:l -cache:il1 il1:1:32:256:l -cache:il2 dl2 multi_quicksort_seq1689782864
	sim-bpred -bpred bimod -bpred:bimod 512 multi_quicksort_seq1689782864
	sim-bpred -bpred bimod -bpred:bimod 1024 multi_quicksort_seq1689782864
	sim-bpred -bpred bimod -bpred:bimod 2048 multi_quicksort_seq1689782864
	sim-bpred -bpred 2lev -bpred:2lev 1 512 10 1 multi_quicksort_seq1689782864
	sim-bpred -bpred 2lev -bpred:2lev 1 1024 10 1 multi_quicksort_seq1689782864
	sim-bpred -bpred 2lev -bpred:2lev 1 2048 10 1 multi_quicksort_seq1689782864
	sim-bpred -bpred 2lev -bpred:2lev 1 4096 10 1 multi_quicksort_seq1689782864
	sslittle-na-sstrix-gcc -Wall -O3 -funroll-loops -finline-functions  -DRANDOM_SIZE=4194304 -DOFFSET=6 -DSORT=multi_quicksort_seq sorts/multi_quicksort_seq231952523.c simpleMain.c -o multi_quicksort_seq1689782864
	sim-cache -cache:dl1 dl1:256:32:1:l -cache:dl2 dl2:131072:32:1:l -cache:il1 il1:256:32:1:l -cache:il2 dl2 multi_quicksort_seq1689782864
	sim-cache -cache:dl1 dl1:256:32:1:l -cache:dl2 dl2:65536:32:1:l -cache:il1 il1:256:32:1:l -cache:il2 dl2 multi_quicksort_seq1689782864
	sim-cache -cache:dl1 dl1:1:32:256:l -cache:dl2 dl2:1:32:131072:l -cache:il1 il1:1:32:256:l -cache:il2 dl2 multi_quicksort_seq1689782864
	sim-cache -cache:dl1 dl1:1:32:256:l -cache:dl2 dl2:1:32:65536:l -cache:il1 il1:1:32:256:l -cache:il2 dl2 multi_quicksort_seq1689782864
	sim-bpred -bpred bimod -bpred:bimod 512 multi_quicksort_seq1689782864
	sim-bpred -bpred bimod -bpred:bimod 1024 multi_quicksort_seq1689782864
	sim-bpred -bpred bimod -bpred:bimod 2048 multi_quicksort_seq1689782864
	sim-bpred -bpred 2lev -bpred:2lev 1 512 10 1 multi_quicksort_seq1689782864
	sim-bpred -bpred 2lev -bpred:2lev 1 1024 10 1 multi_quicksort_seq1689782864
	sim-bpred -bpred 2lev -bpred:2lev 1 2048 10 1 multi_quicksort_seq1689782864
	sim-bpred -bpred 2lev -bpred:2lev 1 4096 10 1 multi_quicksort_seq1689782864
