Sun Jul  3 08:59:27 2005
Run as: "./do_simple -c random.org3 -o 3 multi_mergesort"
-------------------------------------------------------------------------------------------------
sim-cache                                     4096 |         4096 |         4096 |         4096 |         8192 |         8192 |         8192 |         8192 |        16384 |        16384 |        16384 |        16384 |        32768 |        32768 |        32768 |        32768 |        65536 |        65536 |        65536 |        65536 |       131072 |       131072 |       131072 |       131072 |       262144 |       262144 |       262144 |       262144 |       524288 |       524288 |       524288 |       524288 |      1048576 |      1048576 |      1048576 |      1048576 |      2097152 |      2097152 |      2097152 |      2097152 |      4194304 |      4194304 |      4194304 |      4194304 |
-cache:dl1 dl1:256:32:1:l -cache:dl2 dl2:131072:32:1:l -cache:il1 il1:256:32:1:l -cache:il2 dl2
-cache:dl1 dl1:256:32:1:l -cache:dl2 dl2:65536:32:1:l -cache:il1 il1:256:32:1:l -cache:il2 dl2
-cache:dl1 dl1:1:32:256:l -cache:dl2 dl2:1:32:131072:l -cache:il1 il1:1:32:256:l -cache:il2 dl2
-cache:dl1 dl1:1:32:256:l -cache:dl2 dl2:1:32:65536:l -cache:il1 il1:1:32:256:l -cache:il2 dl2
-------------------------------------------------------------------------------------------------
sim_num_insn                                860224 |       860224 |       860224 |       860224 |      1749933 |      1749933 |      1749933 |      1749933 |      3960495 |      3960495 |      3960495 |      3960495 |      8062750 |      8062750 |      8062750 |      8062750 |     17979435 |     17979435 |     17979435 |     17979435 |     36566862 |     36566862 |     36566862 |     36566862 |     77441593 |     77441593 |     77441593 |     77441593 |    223370518 |    223370518 |    223370518 |    223370518 |    473222836 |    473222836 |    473222836 |    473222836 |   1035624913 |   1035624913 |   1035624913 |   1035624913 |   2186591536 |   2186591536 |   2186591536 |   2186591536 |
sim_num_refs                                229031 |       229031 |       229031 |       229031 |       471820 |       471820 |       471820 |       471820 |      1051704 |      1051704 |      1051704 |      1051704 |      2171277 |      2171277 |      2171277 |      2171277 |      4784123 |      4784123 |      4784123 |      4784123 |      9854373 |      9854373 |      9854373 |      9854373 |     20881424 |     20881424 |     20881424 |     20881424 |     60939325 |     60939325 |     60939325 |     60939325 |    130164133 |    130164133 |    130164133 |    130164133 |    283165802 |    283165802 |    283165802 |    283165802 |    604290583 |    604290583 |    604290583 |    604290583 |
sim_elapsed_time                                 1 |            1 |           10 |            6 |            1 |            1 |           16 |            8 |            1 |            2 |           26 |           14 |            2 |            2 |           48 |           25 |            5 |            5 |           88 |           44 |           10 |           10 |          162 |           75 |           21 |           21 |          278 |          107 |           61 |           61 |          401 |          148 |          127 |          128 |          471 |          231 |          279 |          280 |          634 |          381 |          592 |          591 |          964 |          714 |
sim_inst_rate                          860224.0000 |  860224.0000 |   86022.4000 |  143370.6667 | 1749933.0000 | 1749933.0000 |  109370.8125 |  218741.6250 | 3960495.0000 | 1980247.5000 |  152326.7308 |  282892.5000 | 4031375.0000 | 4031375.0000 |  167973.9583 |  322510.0000 | 3595887.0000 | 3595887.0000 |  204311.7614 |  408623.5227 | 3656686.2000 | 3656686.2000 |  225721.3704 |  487558.1600 | 3687694.9048 | 3687694.9048 |  278566.8813 |  723753.2056 | 3661811.7705 | 3661811.7705 |  557033.7107 | 1509260.2568 | 3726164.0630 | 3697053.4062 | 1004719.3970 | 2048583.7056 | 3711917.2509 | 3698660.4036 | 1633477.7808 | 2718175.6247 | 3693566.7838 | 3699816.4738 | 2268248.4813 | 3062453.1317 |
il1.accesses                                860224 |       860224 |       860224 |       860224 |      1749933 |      1749933 |      1749933 |      1749933 |      3960495 |      3960495 |      3960495 |      3960495 |      8062750 |      8062750 |      8062750 |      8062750 |     17979435 |     17979435 |     17979435 |     17979435 |     36566862 |     36566862 |     36566862 |     36566862 |     77441593 |     77441593 |     77441593 |     77441593 |    223370518 |    223370518 |    223370518 |    223370518 |    473222836 |    473222836 |    473222836 |    473222836 |   1035624913 |   1035624913 |   1035624913 |   1035624913 |   2186591536 |   2186591536 |   2186591536 |   2186591536 |
il1.hits                                    859540 |       859540 |       859645 |       859645 |      1749204 |      1749204 |      1749333 |      1749333 |      3959751 |      3959751 |      3959923 |      3959923 |      8061874 |      8061874 |      8062147 |      8062147 |     17978389 |     17978389 |     17978854 |     17978854 |     36565410 |     36565410 |     36566259 |     36566259 |     77439881 |     77439881 |     77440992 |     77440992 |    222058787 |    222058787 |    223369626 |    223369626 |    470600337 |    470600337 |    473221901 |    473221901 |   1030380978 |   1030380978 |   1035623993 |   1035623993 |   2176104688 |   2176104688 |   2186590598 |   2186590598 |
il1.misses                                     684 |          684 |          579 |          579 |          729 |          729 |          600 |          600 |          744 |          744 |          572 |          572 |          876 |          876 |          603 |          603 |         1046 |         1046 |          581 |          581 |         1452 |         1452 |          603 |          603 |         1712 |         1712 |          601 |          601 |      1311731 |      1311731 |          892 |          892 |      2622499 |      2622499 |          935 |          935 |      5243935 |      5243935 |          920 |          920 |     10486848 |     10486848 |          938 |          938 |
il1.replacements                               450 |          450 |          323 |          323 |          493 |          493 |          344 |          344 |          509 |          509 |          316 |          316 |          640 |          640 |          347 |          347 |          811 |          811 |          325 |          325 |         1216 |         1216 |          347 |          347 |         1475 |         1475 |          345 |          345 |      1311475 |      1311475 |          636 |          636 |      2622243 |      2622243 |          679 |          679 |      5243679 |      5243679 |          664 |          664 |     10486592 |     10486592 |          682 |          682 |
il1.writebacks                                   0 |            0 |            0 |            0 |            0 |            0 |            0 |            0 |            0 |            0 |            0 |            0 |            0 |            0 |            0 |            0 |            0 |            0 |            0 |            0 |            0 |            0 |            0 |            0 |            0 |            0 |            0 |            0 |            0 |            0 |            0 |            0 |            0 |            0 |            0 |            0 |            0 |            0 |            0 |            0 |            0 |            0 |            0 |            0 |
il1.invalidations                                0 |            0 |            0 |            0 |            0 |            0 |            0 |            0 |            0 |            0 |            0 |            0 |            0 |            0 |            0 |            0 |            0 |            0 |            0 |            0 |            0 |            0 |            0 |            0 |            0 |            0 |            0 |            0 |            0 |            0 |            0 |            0 |            0 |            0 |            0 |            0 |            0 |            0 |            0 |            0 |            0 |            0 |            0 |            0 |
il1.miss_rate                               0.0008 |       0.0008 |       0.0007 |       0.0007 |       0.0004 |       0.0004 |       0.0003 |       0.0003 |       0.0002 |       0.0002 |       0.0001 |       0.0001 |       0.0001 |       0.0001 |       0.0001 |       0.0001 |       0.0001 |       0.0001 |       0.0000 |       0.0000 |       0.0000 |       0.0000 |       0.0000 |       0.0000 |       0.0000 |       0.0000 |       0.0000 |       0.0000 |       0.0059 |       0.0059 |       0.0000 |       0.0000 |       0.0055 |       0.0055 |       0.0000 |       0.0000 |       0.0051 |       0.0051 |       0.0000 |       0.0000 |       0.0048 |       0.0048 |       0.0000 |       0.0000 |
il1.repl_rate                               0.0005 |       0.0005 |       0.0004 |       0.0004 |       0.0003 |       0.0003 |       0.0002 |       0.0002 |       0.0001 |       0.0001 |       0.0001 |       0.0001 |       0.0001 |       0.0001 |       0.0000 |       0.0000 |       0.0000 |       0.0000 |       0.0000 |       0.0000 |       0.0000 |       0.0000 |       0.0000 |       0.0000 |       0.0000 |       0.0000 |       0.0000 |       0.0000 |       0.0059 |       0.0059 |       0.0000 |       0.0000 |       0.0055 |       0.0055 |       0.0000 |       0.0000 |       0.0051 |       0.0051 |       0.0000 |       0.0000 |       0.0048 |       0.0048 |       0.0000 |       0.0000 |
il1.wb_rate                                 0.0000 |       0.0000 |       0.0000 |       0.0000 |       0.0000 |       0.0000 |       0.0000 |       0.0000 |       0.0000 |       0.0000 |       0.0000 |       0.0000 |       0.0000 |       0.0000 |       0.0000 |       0.0000 |       0.0000 |       0.0000 |       0.0000 |       0.0000 |       0.0000 |       0.0000 |       0.0000 |       0.0000 |       0.0000 |       0.0000 |       0.0000 |       0.0000 |       0.0000 |       0.0000 |       0.0000 |       0.0000 |       0.0000 |       0.0000 |       0.0000 |       0.0000 |       0.0000 |       0.0000 |       0.0000 |       0.0000 |       0.0000 |       0.0000 |       0.0000 |       0.0000 |
il1.inv_rate                                0.0000 |       0.0000 |       0.0000 |       0.0000 |       0.0000 |       0.0000 |       0.0000 |       0.0000 |       0.0000 |       0.0000 |       0.0000 |       0.0000 |       0.0000 |       0.0000 |       0.0000 |       0.0000 |       0.0000 |       0.0000 |       0.0000 |       0.0000 |       0.0000 |       0.0000 |       0.0000 |       0.0000 |       0.0000 |       0.0000 |       0.0000 |       0.0000 |       0.0000 |       0.0000 |       0.0000 |       0.0000 |       0.0000 |       0.0000 |       0.0000 |       0.0000 |       0.0000 |       0.0000 |       0.0000 |       0.0000 |       0.0000 |       0.0000 |       0.0000 |       0.0000 |
dl1.accesses                                245497 |       245497 |       245497 |       245497 |       504670 |       504670 |       504670 |       504670 |      1117322 |      1117322 |      1117322 |      1117322 |      2302431 |      2302431 |      2302431 |      2302431 |      5046349 |      5046349 |      5046349 |      5046349 |     10378743 |     10378743 |     10378743 |     10378743 |     21930082 |     21930082 |     21930082 |     21930082 |     63036559 |     63036559 |     63036559 |     63036559 |    134358519 |    134358519 |    134358519 |    134358519 |    291554492 |    291554492 |    291554492 |    291554492 |    621067881 |    621067881 |    621067881 |    621067881 |
dl1.hits                                    217563 |       217563 |       238561 |       238561 |       455152 |       455152 |       490497 |       490497 |       998519 |       998519 |      1082785 |      1082785 |      2087635 |      2087635 |      2230649 |      2230649 |      4536137 |      4536137 |      4876716 |      4876716 |      9448134 |      9448134 |     10027543 |     10027543 |     19997636 |     19997636 |     21162569 |     21162569 |     58308584 |     58308584 |     61287803 |     61287803 |    125886590 |    125886590 |    131025879 |    131025879 |    272616645 |    272616645 |    284565704 |    284565704 |    587102430 |    587102430 |    607739481 |    607739481 |
dl1.misses                                   27934 |        27934 |         6936 |         6936 |        49518 |        49518 |        14173 |        14173 |       118803 |       118803 |        34537 |        34537 |       214796 |       214796 |        71782 |        71782 |       510212 |       510212 |       169633 |       169633 |       930609 |       930609 |       351200 |       351200 |      1932446 |      1932446 |       767513 |       767513 |      4727975 |      4727975 |      1748756 |      1748756 |      8471929 |      8471929 |      3332640 |      3332640 |     18937847 |     18937847 |      6988788 |      6988788 |     33965451 |     33965451 |     13328400 |     13328400 |
dl1.replacements                             27678 |        27678 |         6680 |         6680 |        49262 |        49262 |        13917 |        13917 |       118547 |       118547 |        34281 |        34281 |       214540 |       214540 |        71526 |        71526 |       509956 |       509956 |       169377 |       169377 |       930353 |       930353 |       350944 |       350944 |      1932190 |      1932190 |       767257 |       767257 |      4727719 |      4727719 |      1748500 |      1748500 |      8471673 |      8471673 |      3332384 |      3332384 |     18937591 |     18937591 |      6988532 |      6988532 |     33965195 |     33965195 |     13328144 |     13328144 |
dl1.writebacks                               15002 |        15002 |         5046 |         5046 |        26915 |        26915 |         9752 |         9752 |        63464 |        63464 |        23360 |        23360 |       115651 |       115651 |        46374 |        46374 |       270543 |       270543 |       108972 |       108972 |       496671 |       496671 |       217263 |       217263 |      1026956 |      1026956 |       467014 |       467014 |      2551223 |      2551223 |      1067561 |      1067561 |      4620628 |      4620628 |      1999587 |      1999587 |     10231023 |     10231023 |      4266390 |      4266390 |     18560188 |     18560188 |      7998093 |      7998093 |
dl1.invalidations                                0 |            0 |            0 |            0 |            0 |            0 |            0 |            0 |            0 |            0 |            0 |            0 |            0 |            0 |            0 |            0 |            0 |            0 |            0 |            0 |            0 |            0 |            0 |            0 |            0 |            0 |            0 |            0 |            0 |            0 |            0 |            0 |            0 |            0 |            0 |            0 |            0 |            0 |            0 |            0 |            0 |            0 |            0 |            0 |
dl1.miss_rate                               0.1138 |       0.1138 |       0.0283 |       0.0283 |       0.0981 |       0.0981 |       0.0281 |       0.0281 |       0.1063 |       0.1063 |       0.0309 |       0.0309 |       0.0933 |       0.0933 |       0.0312 |       0.0312 |       0.1011 |       0.1011 |       0.0336 |       0.0336 |       0.0897 |       0.0897 |       0.0338 |       0.0338 |       0.0881 |       0.0881 |       0.0350 |       0.0350 |       0.0750 |       0.0750 |       0.0277 |       0.0277 |       0.0631 |       0.0631 |       0.0248 |       0.0248 |       0.0650 |       0.0650 |       0.0240 |       0.0240 |       0.0547 |       0.0547 |       0.0215 |       0.0215 |
dl1.repl_rate                               0.1127 |       0.1127 |       0.0272 |       0.0272 |       0.0976 |       0.0976 |       0.0276 |       0.0276 |       0.1061 |       0.1061 |       0.0307 |       0.0307 |       0.0932 |       0.0932 |       0.0311 |       0.0311 |       0.1011 |       0.1011 |       0.0336 |       0.0336 |       0.0896 |       0.0896 |       0.0338 |       0.0338 |       0.0881 |       0.0881 |       0.0350 |       0.0350 |       0.0750 |       0.0750 |       0.0277 |       0.0277 |       0.0631 |       0.0631 |       0.0248 |       0.0248 |       0.0650 |       0.0650 |       0.0240 |       0.0240 |       0.0547 |       0.0547 |       0.0215 |       0.0215 |
dl1.wb_rate                                 0.0611 |       0.0611 |       0.0206 |       0.0206 |       0.0533 |       0.0533 |       0.0193 |       0.0193 |       0.0568 |       0.0568 |       0.0209 |       0.0209 |       0.0502 |       0.0502 |       0.0201 |       0.0201 |       0.0536 |       0.0536 |       0.0216 |       0.0216 |       0.0479 |       0.0479 |       0.0209 |       0.0209 |       0.0468 |       0.0468 |       0.0213 |       0.0213 |       0.0405 |       0.0405 |       0.0169 |       0.0169 |       0.0344 |       0.0344 |       0.0149 |       0.0149 |       0.0351 |       0.0351 |       0.0146 |       0.0146 |       0.0299 |       0.0299 |       0.0129 |       0.0129 |
dl1.inv_rate                                0.0000 |       0.0000 |       0.0000 |       0.0000 |       0.0000 |       0.0000 |       0.0000 |       0.0000 |       0.0000 |       0.0000 |       0.0000 |       0.0000 |       0.0000 |       0.0000 |       0.0000 |       0.0000 |       0.0000 |       0.0000 |       0.0000 |       0.0000 |       0.0000 |       0.0000 |       0.0000 |       0.0000 |       0.0000 |       0.0000 |       0.0000 |       0.0000 |       0.0000 |       0.0000 |       0.0000 |       0.0000 |       0.0000 |       0.0000 |       0.0000 |       0.0000 |       0.0000 |       0.0000 |       0.0000 |       0.0000 |       0.0000 |       0.0000 |       0.0000 |       0.0000 |
dl2.accesses                                 43620 |        43620 |        12561 |        12561 |        77162 |        77162 |        24525 |        24525 |       183011 |       183011 |        58469 |        58469 |       331323 |       331323 |       118759 |       118759 |       781801 |       781801 |       279186 |       279186 |      1428732 |      1428732 |       569066 |       569066 |      2961114 |      2961114 |      1235128 |      1235128 |      8590929 |      8590929 |      2817209 |      2817209 |     15715056 |     15715056 |      5333162 |      5333162 |     34412805 |     34412805 |     11256098 |     11256098 |     63012487 |     63012487 |     21327431 |     21327431 |
dl2.hits                                     41562 |        41562 |        10596 |        10596 |        74047 |        74047 |        21519 |        21519 |       177883 |       177883 |        53438 |        53438 |       322062 |       322062 |       109607 |       109607 |       764377 |       764377 |       261859 |       261859 |      1394895 |      1394895 |       535338 |       535338 |      2894508 |      2894359 |      1168635 |      1132052 |      8403072 |      8302703 |      2647947 |      2425847 |     15130262 |     15059617 |      4685902 |      4553702 |     33100288 |     33098920 |      9946692 |      9700397 |     60386250 |     60384344 |     18703463 |     18218415 |
dl2.misses                                    2058 |         2058 |         1965 |         1965 |         3115 |         3115 |         3006 |         3006 |         5128 |         5128 |         5031 |         5031 |         9261 |         9261 |         9152 |         9152 |        17424 |        17424 |        17327 |        17327 |        33837 |        33837 |        33728 |        33728 |        66606 |        66755 |        66493 |       103076 |       187857 |       288226 |       169262 |       391362 |       584794 |       655439 |       647260 |       779460 |      1312517 |      1313885 |      1309406 |      1555701 |      2626237 |      2628143 |      2623968 |      3109016 |
dl2.replacements                               253 |          253 |            0 |            0 |          285 |          285 |            0 |            0 |          257 |          257 |            0 |            0 |          285 |          285 |            0 |            0 |          257 |          257 |            0 |            0 |          285 |          285 |            0 |            0 |          294 |         1219 |            0 |        37540 |        88100 |       222690 |        38190 |       325826 |       453722 |       589903 |       516188 |       713924 |      1181445 |      1248349 |      1178334 |      1490165 |      2495165 |      2562607 |      2492896 |      3043480 |
dl2.writebacks                                  88 |           88 |            0 |            0 |           96 |           96 |            0 |            0 |           92 |           92 |            0 |            0 |           96 |           96 |            0 |            0 |           92 |           92 |            0 |            0 |           96 |           96 |            0 |            0 |          108 |          718 |            0 |        37088 |        87839 |       188568 |        37355 |       291968 |       388918 |       473675 |       460430 |       614403 |       951315 |       993164 |       985375 |      1259434 |      1986654 |      2040732 |      2035344 |      2550273 |
dl2.invalidations                                0 |            0 |            0 |            0 |            0 |            0 |            0 |            0 |            0 |            0 |            0 |            0 |            0 |            0 |            0 |            0 |            0 |            0 |            0 |            0 |            0 |            0 |            0 |            0 |            0 |            0 |            0 |            0 |            0 |            0 |            0 |            0 |            0 |            0 |            0 |            0 |            0 |            0 |            0 |            0 |            0 |            0 |            0 |            0 |
dl2.miss_rate                               0.0472 |       0.0472 |       0.1564 |       0.1564 |       0.0404 |       0.0404 |       0.1226 |       0.1226 |       0.0280 |       0.0280 |       0.0860 |       0.0860 |       0.0280 |       0.0280 |       0.0771 |       0.0771 |       0.0223 |       0.0223 |       0.0621 |       0.0621 |       0.0237 |       0.0237 |       0.0593 |       0.0593 |       0.0225 |       0.0225 |       0.0538 |       0.0835 |       0.0219 |       0.0336 |       0.0601 |       0.1389 |       0.0372 |       0.0417 |       0.1214 |       0.1462 |       0.0381 |       0.0382 |       0.1163 |       0.1382 |       0.0417 |       0.0417 |       0.1230 |       0.1458 |
dl2.repl_rate                               0.0058 |       0.0058 |       0.0000 |       0.0000 |       0.0037 |       0.0037 |       0.0000 |       0.0000 |       0.0014 |       0.0014 |       0.0000 |       0.0000 |       0.0009 |       0.0009 |       0.0000 |       0.0000 |       0.0003 |       0.0003 |       0.0000 |       0.0000 |       0.0002 |       0.0002 |       0.0000 |       0.0000 |       0.0001 |       0.0004 |       0.0000 |       0.0304 |       0.0103 |       0.0259 |       0.0136 |       0.1157 |       0.0289 |       0.0375 |       0.0968 |       0.1339 |       0.0343 |       0.0363 |       0.1047 |       0.1324 |       0.0396 |       0.0407 |       0.1169 |       0.1427 |
dl2.wb_rate                                 0.0020 |       0.0020 |       0.0000 |       0.0000 |       0.0012 |       0.0012 |       0.0000 |       0.0000 |       0.0005 |       0.0005 |       0.0000 |       0.0000 |       0.0003 |       0.0003 |       0.0000 |       0.0000 |       0.0001 |       0.0001 |       0.0000 |       0.0000 |       0.0001 |       0.0001 |       0.0000 |       0.0000 |       0.0000 |       0.0002 |       0.0000 |       0.0300 |       0.0102 |       0.0219 |       0.0133 |       0.1036 |       0.0247 |       0.0301 |       0.0863 |       0.1152 |       0.0276 |       0.0289 |       0.0875 |       0.1119 |       0.0315 |       0.0324 |       0.0954 |       0.1196 |
dl2.inv_rate                                0.0000 |       0.0000 |       0.0000 |       0.0000 |       0.0000 |       0.0000 |       0.0000 |       0.0000 |       0.0000 |       0.0000 |       0.0000 |       0.0000 |       0.0000 |       0.0000 |       0.0000 |       0.0000 |       0.0000 |       0.0000 |       0.0000 |       0.0000 |       0.0000 |       0.0000 |       0.0000 |       0.0000 |       0.0000 |       0.0000 |       0.0000 |       0.0000 |       0.0000 |       0.0000 |       0.0000 |       0.0000 |       0.0000 |       0.0000 |       0.0000 |       0.0000 |       0.0000 |       0.0000 |       0.0000 |       0.0000 |       0.0000 |       0.0000 |       0.0000 |       0.0000 |
itlb.accesses                               860224 |       860224 |       860224 |       860224 |      1749933 |      1749933 |      1749933 |      1749933 |      3960495 |      3960495 |      3960495 |      3960495 |      8062750 |      8062750 |      8062750 |      8062750 |     17979435 |     17979435 |     17979435 |     17979435 |     36566862 |     36566862 |     36566862 |     36566862 |     77441593 |     77441593 |     77441593 |     77441593 |    223370518 |    223370518 |    223370518 |    223370518 |    473222836 |    473222836 |    473222836 |    473222836 |   1035624913 |   1035624913 |   1035624913 |   1035624913 |   2186591536 |   2186591536 |   2186591536 |   2186591536 |
itlb.hits                                   860210 |       860210 |       860210 |       860210 |      1749919 |      1749919 |      1749919 |      1749919 |      3960481 |      3960481 |      3960481 |      3960481 |      8062736 |      8062736 |      8062736 |      8062736 |     17979421 |     17979421 |     17979421 |     17979421 |     36566848 |     36566848 |     36566848 |     36566848 |     77441579 |     77441579 |     77441579 |     77441579 |    223370504 |    223370504 |    223370504 |    223370504 |    473222822 |    473222822 |    473222822 |    473222822 |   1035624899 |   1035624899 |   1035624899 |   1035624899 |   2186591522 |   2186591522 |   2186591522 |   2186591522 |
itlb.misses                                     14 |           14 |           14 |           14 |           14 |           14 |           14 |           14 |           14 |           14 |           14 |           14 |           14 |           14 |           14 |           14 |           14 |           14 |           14 |           14 |           14 |           14 |           14 |           14 |           14 |           14 |           14 |           14 |           14 |           14 |           14 |           14 |           14 |           14 |           14 |           14 |           14 |           14 |           14 |           14 |           14 |           14 |           14 |           14 |
itlb.replacements                                0 |            0 |            0 |            0 |            0 |            0 |            0 |            0 |            0 |            0 |            0 |            0 |            0 |            0 |            0 |            0 |            0 |            0 |            0 |            0 |            0 |            0 |            0 |            0 |            0 |            0 |            0 |            0 |            0 |            0 |            0 |            0 |            0 |            0 |            0 |            0 |            0 |            0 |            0 |            0 |            0 |            0 |            0 |            0 |
itlb.writebacks                                  0 |            0 |            0 |            0 |            0 |            0 |            0 |            0 |            0 |            0 |            0 |            0 |            0 |            0 |            0 |            0 |            0 |            0 |            0 |            0 |            0 |            0 |            0 |            0 |            0 |            0 |            0 |            0 |            0 |            0 |            0 |            0 |            0 |            0 |            0 |            0 |            0 |            0 |            0 |            0 |            0 |            0 |            0 |            0 |
itlb.invalidations                               0 |            0 |            0 |            0 |            0 |            0 |            0 |            0 |            0 |            0 |            0 |            0 |            0 |            0 |            0 |            0 |            0 |            0 |            0 |            0 |            0 |            0 |            0 |            0 |            0 |            0 |            0 |            0 |            0 |            0 |            0 |            0 |            0 |            0 |            0 |            0 |            0 |            0 |            0 |            0 |            0 |            0 |            0 |            0 |
itlb.miss_rate                              0.0000 |       0.0000 |       0.0000 |       0.0000 |       0.0000 |       0.0000 |       0.0000 |       0.0000 |       0.0000 |       0.0000 |       0.0000 |       0.0000 |       0.0000 |       0.0000 |       0.0000 |       0.0000 |       0.0000 |       0.0000 |       0.0000 |       0.0000 |       0.0000 |       0.0000 |       0.0000 |       0.0000 |       0.0000 |       0.0000 |       0.0000 |       0.0000 |       0.0000 |       0.0000 |       0.0000 |       0.0000 |       0.0000 |       0.0000 |       0.0000 |       0.0000 |       0.0000 |       0.0000 |       0.0000 |       0.0000 |       0.0000 |       0.0000 |       0.0000 |       0.0000 |
itlb.repl_rate                              0.0000 |       0.0000 |       0.0000 |       0.0000 |       0.0000 |       0.0000 |       0.0000 |       0.0000 |       0.0000 |       0.0000 |       0.0000 |       0.0000 |       0.0000 |       0.0000 |       0.0000 |       0.0000 |       0.0000 |       0.0000 |       0.0000 |       0.0000 |       0.0000 |       0.0000 |       0.0000 |       0.0000 |       0.0000 |       0.0000 |       0.0000 |       0.0000 |       0.0000 |       0.0000 |       0.0000 |       0.0000 |       0.0000 |       0.0000 |       0.0000 |       0.0000 |       0.0000 |       0.0000 |       0.0000 |       0.0000 |       0.0000 |       0.0000 |       0.0000 |       0.0000 |
itlb.wb_rate                                0.0000 |       0.0000 |       0.0000 |       0.0000 |       0.0000 |       0.0000 |       0.0000 |       0.0000 |       0.0000 |       0.0000 |       0.0000 |       0.0000 |       0.0000 |       0.0000 |       0.0000 |       0.0000 |       0.0000 |       0.0000 |       0.0000 |       0.0000 |       0.0000 |       0.0000 |       0.0000 |       0.0000 |       0.0000 |       0.0000 |       0.0000 |       0.0000 |       0.0000 |       0.0000 |       0.0000 |       0.0000 |       0.0000 |       0.0000 |       0.0000 |       0.0000 |       0.0000 |       0.0000 |       0.0000 |       0.0000 |       0.0000 |       0.0000 |       0.0000 |       0.0000 |
itlb.inv_rate                               0.0000 |       0.0000 |       0.0000 |       0.0000 |       0.0000 |       0.0000 |       0.0000 |       0.0000 |       0.0000 |       0.0000 |       0.0000 |       0.0000 |       0.0000 |       0.0000 |       0.0000 |       0.0000 |       0.0000 |       0.0000 |       0.0000 |       0.0000 |       0.0000 |       0.0000 |       0.0000 |       0.0000 |       0.0000 |       0.0000 |       0.0000 |       0.0000 |       0.0000 |       0.0000 |       0.0000 |       0.0000 |       0.0000 |       0.0000 |       0.0000 |       0.0000 |       0.0000 |       0.0000 |       0.0000 |       0.0000 |       0.0000 |       0.0000 |       0.0000 |       0.0000 |
dtlb.accesses                               245497 |       245497 |       245497 |       245497 |       504670 |       504670 |       504670 |       504670 |      1117322 |      1117322 |      1117322 |      1117322 |      2302431 |      2302431 |      2302431 |      2302431 |      5046349 |      5046349 |      5046349 |      5046349 |     10378743 |     10378743 |     10378743 |     10378743 |     21930082 |     21930082 |     21930082 |     21930082 |     63036559 |     63036559 |     63036559 |     63036559 |    134358519 |    134358519 |    134358519 |    134358519 |    291554492 |    291554492 |    291554492 |    291554492 |    621067881 |    621067881 |    621067881 |    621067881 |
dtlb.hits                                   245481 |       245481 |       245481 |       245481 |       504646 |       504646 |       504646 |       504646 |      1117282 |      1117282 |      1117282 |      1117282 |      2302359 |      2302359 |      2302359 |      2302359 |      5046164 |      5046164 |      5046164 |      5046164 |     10376317 |     10376317 |     10376317 |     10376317 |     21924668 |     21924668 |     21924668 |     21924668 |     63024828 |     63024828 |     63024828 |     63024828 |    134335012 |    134335012 |    134335012 |    134335012 |    291491153 |    291491153 |    291491153 |    291491153 |    620597678 |    620597678 |    620597678 |    620597678 |
dtlb.misses                                     16 |           16 |           16 |           16 |           24 |           24 |           24 |           24 |           40 |           40 |           40 |           40 |           72 |           72 |           72 |           72 |          185 |          185 |          185 |          185 |         2426 |         2426 |         2426 |         2426 |         5414 |         5414 |         5414 |         5414 |        11731 |        11731 |        11731 |        11731 |        23507 |        23507 |        23507 |        23507 |        63339 |        63339 |        63339 |        63339 |       470203 |       470203 |       470203 |       470203 |
dtlb.replacements                                0 |            0 |            0 |            0 |            0 |            0 |            0 |            0 |            0 |            0 |            0 |            0 |            0 |            0 |            0 |            0 |           57 |           57 |           57 |           57 |         2298 |         2298 |         2298 |         2298 |         5286 |         5286 |         5286 |         5286 |        11603 |        11603 |        11603 |        11603 |        23379 |        23379 |        23379 |        23379 |        63211 |        63211 |        63211 |        63211 |       470075 |       470075 |       470075 |       470075 |
dtlb.writebacks                                  0 |            0 |            0 |            0 |            0 |            0 |            0 |            0 |            0 |            0 |            0 |            0 |            0 |            0 |            0 |            0 |           37 |           37 |           37 |           37 |         1333 |         1333 |         1333 |         1333 |         3029 |         3029 |         3029 |         3029 |         6583 |         6583 |         6583 |         6583 |        13210 |        13210 |        13210 |        13210 |        26466 |        26466 |        26466 |        26466 |        52961 |        52961 |        52961 |        52961 |
dtlb.invalidations                               0 |            0 |            0 |            0 |            0 |            0 |            0 |            0 |            0 |            0 |            0 |            0 |            0 |            0 |            0 |            0 |            0 |            0 |            0 |            0 |            0 |            0 |            0 |            0 |            0 |            0 |            0 |            0 |            0 |            0 |            0 |            0 |            0 |            0 |            0 |            0 |            0 |            0 |            0 |            0 |            0 |            0 |            0 |            0 |
dtlb.miss_rate                              0.0001 |       0.0001 |       0.0001 |       0.0001 |       0.0000 |       0.0000 |       0.0000 |       0.0000 |       0.0000 |       0.0000 |       0.0000 |       0.0000 |       0.0000 |       0.0000 |       0.0000 |       0.0000 |       0.0000 |       0.0000 |       0.0000 |       0.0000 |       0.0002 |       0.0002 |       0.0002 |       0.0002 |       0.0002 |       0.0002 |       0.0002 |       0.0002 |       0.0002 |       0.0002 |       0.0002 |       0.0002 |       0.0002 |       0.0002 |       0.0002 |       0.0002 |       0.0002 |       0.0002 |       0.0002 |       0.0002 |       0.0008 |       0.0008 |       0.0008 |       0.0008 |
dtlb.repl_rate                              0.0000 |       0.0000 |       0.0000 |       0.0000 |       0.0000 |       0.0000 |       0.0000 |       0.0000 |       0.0000 |       0.0000 |       0.0000 |       0.0000 |       0.0000 |       0.0000 |       0.0000 |       0.0000 |       0.0000 |       0.0000 |       0.0000 |       0.0000 |       0.0002 |       0.0002 |       0.0002 |       0.0002 |       0.0002 |       0.0002 |       0.0002 |       0.0002 |       0.0002 |       0.0002 |       0.0002 |       0.0002 |       0.0002 |       0.0002 |       0.0002 |       0.0002 |       0.0002 |       0.0002 |       0.0002 |       0.0002 |       0.0008 |       0.0008 |       0.0008 |       0.0008 |
dtlb.wb_rate                                0.0000 |       0.0000 |       0.0000 |       0.0000 |       0.0000 |       0.0000 |       0.0000 |       0.0000 |       0.0000 |       0.0000 |       0.0000 |       0.0000 |       0.0000 |       0.0000 |       0.0000 |       0.0000 |       0.0000 |       0.0000 |       0.0000 |       0.0000 |       0.0001 |       0.0001 |       0.0001 |       0.0001 |       0.0001 |       0.0001 |       0.0001 |       0.0001 |       0.0001 |       0.0001 |       0.0001 |       0.0001 |       0.0001 |       0.0001 |       0.0001 |       0.0001 |       0.0001 |       0.0001 |       0.0001 |       0.0001 |       0.0001 |       0.0001 |       0.0001 |       0.0001 |
dtlb.inv_rate                               0.0000 |       0.0000 |       0.0000 |       0.0000 |       0.0000 |       0.0000 |       0.0000 |       0.0000 |       0.0000 |       0.0000 |       0.0000 |       0.0000 |       0.0000 |       0.0000 |       0.0000 |       0.0000 |       0.0000 |       0.0000 |       0.0000 |       0.0000 |       0.0000 |       0.0000 |       0.0000 |       0.0000 |       0.0000 |       0.0000 |       0.0000 |       0.0000 |       0.0000 |       0.0000 |       0.0000 |       0.0000 |       0.0000 |       0.0000 |       0.0000 |       0.0000 |       0.0000 |       0.0000 |       0.0000 |       0.0000 |       0.0000 |       0.0000 |       0.0000 |       0.0000 |
ld_text_base                            0x00400000 |   0x00400000 |   0x00400000 |   0x00400000 |   0x00400000 |   0x00400000 |   0x00400000 |   0x00400000 |   0x00400000 |   0x00400000 |   0x00400000 |   0x00400000 |   0x00400000 |   0x00400000 |   0x00400000 |   0x00400000 |   0x00400000 |   0x00400000 |   0x00400000 |   0x00400000 |   0x00400000 |   0x00400000 |   0x00400000 |   0x00400000 |   0x00400000 |   0x00400000 |   0x00400000 |   0x00400000 |   0x00400000 |   0x00400000 |   0x00400000 |   0x00400000 |   0x00400000 |   0x00400000 |   0x00400000 |   0x00400000 |   0x00400000 |   0x00400000 |   0x00400000 |   0x00400000 |   0x00400000 |   0x00400000 |   0x00400000 |   0x00400000 |
ld_text_size                                 94704 |        94704 |        94704 |        94704 |        94736 |        94736 |        94736 |        94736 |        94752 |        94752 |        94752 |        94752 |        94768 |        94768 |        94768 |        94768 |        94768 |        94768 |        94768 |        94768 |        94768 |        94768 |        94768 |        94768 |        94768 |        94768 |        94768 |        94768 |        94768 |        94768 |        94768 |        94768 |        94768 |        94768 |        94768 |        94768 |        94768 |        94768 |        94768 |        94768 |        94768 |        94768 |        94768 |        94768 |
ld_data_base                            0x10000000 |   0x10000000 |   0x10000000 |   0x10000000 |   0x10000000 |   0x10000000 |   0x10000000 |   0x10000000 |   0x10000000 |   0x10000000 |   0x10000000 |   0x10000000 |   0x10000000 |   0x10000000 |   0x10000000 |   0x10000000 |   0x10000000 |   0x10000000 |   0x10000000 |   0x10000000 |   0x10000000 |   0x10000000 |   0x10000000 |   0x10000000 |   0x10000000 |   0x10000000 |   0x10000000 |   0x10000000 |   0x10000000 |   0x10000000 |   0x10000000 |   0x10000000 |   0x10000000 |   0x10000000 |   0x10000000 |   0x10000000 |   0x10000000 |   0x10000000 |   0x10000000 |   0x10000000 |   0x10000000 |   0x10000000 |   0x10000000 |   0x10000000 |
ld_data_size                                  8192 |         8192 |         8192 |         8192 |         8192 |         8192 |         8192 |         8192 |         8192 |         8192 |         8192 |         8192 |         8192 |         8192 |         8192 |         8192 |         8192 |         8192 |         8192 |         8192 |         8192 |         8192 |         8192 |         8192 |         8192 |         8192 |         8192 |         8192 |         8192 |         8192 |         8192 |         8192 |         8192 |         8192 |         8192 |         8192 |         8192 |         8192 |         8192 |         8192 |         8192 |         8192 |         8192 |         8192 |
ld_stack_base                           0x7fffc000 |   0x7fffc000 |   0x7fffc000 |   0x7fffc000 |   0x7fffc000 |   0x7fffc000 |   0x7fffc000 |   0x7fffc000 |   0x7fffc000 |   0x7fffc000 |   0x7fffc000 |   0x7fffc000 |   0x7fffc000 |   0x7fffc000 |   0x7fffc000 |   0x7fffc000 |   0x7fffc000 |   0x7fffc000 |   0x7fffc000 |   0x7fffc000 |   0x7fffc000 |   0x7fffc000 |   0x7fffc000 |   0x7fffc000 |   0x7fffc000 |   0x7fffc000 |   0x7fffc000 |   0x7fffc000 |   0x7fffc000 |   0x7fffc000 |   0x7fffc000 |   0x7fffc000 |   0x7fffc000 |   0x7fffc000 |   0x7fffc000 |   0x7fffc000 |   0x7fffc000 |   0x7fffc000 |   0x7fffc000 |   0x7fffc000 |   0x7fffc000 |   0x7fffc000 |   0x7fffc000 |   0x7fffc000 |
ld_stack_size                                16384 |        16384 |        16384 |        16384 |        16384 |        16384 |        16384 |        16384 |        16384 |        16384 |        16384 |        16384 |        16384 |        16384 |        16384 |        16384 |        16384 |        16384 |        16384 |        16384 |        16384 |        16384 |        16384 |        16384 |        16384 |        16384 |        16384 |        16384 |        16384 |        16384 |        16384 |        16384 |        16384 |        16384 |        16384 |        16384 |        16384 |        16384 |        16384 |        16384 |        16384 |        16384 |        16384 |        16384 |
ld_prog_entry                           0x00400140 |   0x00400140 |   0x00400140 |   0x00400140 |   0x00400140 |   0x00400140 |   0x00400140 |   0x00400140 |   0x00400140 |   0x00400140 |   0x00400140 |   0x00400140 |   0x00400140 |   0x00400140 |   0x00400140 |   0x00400140 |   0x00400140 |   0x00400140 |   0x00400140 |   0x00400140 |   0x00400140 |   0x00400140 |   0x00400140 |   0x00400140 |   0x00400140 |   0x00400140 |   0x00400140 |   0x00400140 |   0x00400140 |   0x00400140 |   0x00400140 |   0x00400140 |   0x00400140 |   0x00400140 |   0x00400140 |   0x00400140 |   0x00400140 |   0x00400140 |   0x00400140 |   0x00400140 |   0x00400140 |   0x00400140 |   0x00400140 |   0x00400140 |
ld_environ_base                         0x7fff8000 |   0x7fff8000 |   0x7fff8000 |   0x7fff8000 |   0x7fff8000 |   0x7fff8000 |   0x7fff8000 |   0x7fff8000 |   0x7fff8000 |   0x7fff8000 |   0x7fff8000 |   0x7fff8000 |   0x7fff8000 |   0x7fff8000 |   0x7fff8000 |   0x7fff8000 |   0x7fff8000 |   0x7fff8000 |   0x7fff8000 |   0x7fff8000 |   0x7fff8000 |   0x7fff8000 |   0x7fff8000 |   0x7fff8000 |   0x7fff8000 |   0x7fff8000 |   0x7fff8000 |   0x7fff8000 |   0x7fff8000 |   0x7fff8000 |   0x7fff8000 |   0x7fff8000 |   0x7fff8000 |   0x7fff8000 |   0x7fff8000 |   0x7fff8000 |   0x7fff8000 |   0x7fff8000 |   0x7fff8000 |   0x7fff8000 |   0x7fff8000 |   0x7fff8000 |   0x7fff8000 |   0x7fff8000 |
ld_target_big_endian                             0 |            0 |            0 |            0 |            0 |            0 |            0 |            0 |            0 |            0 |            0 |            0 |            0 |            0 |            0 |            0 |            0 |            0 |            0 |            0 |            0 |            0 |            0 |            0 |            0 |            0 |            0 |            0 |            0 |            0 |            0 |            0 |            0 |            0 |            0 |            0 |            0 |            0 |            0 |            0 |            0 |            0 |            0 |            0 |
mem.page_count                                  40 |           40 |           40 |           40 |           48 |           48 |           48 |           48 |           64 |           64 |           64 |           64 |           96 |           96 |           96 |           96 |          160 |          160 |          160 |          160 |          288 |          288 |          288 |          288 |          544 |          544 |          544 |          544 |         1062 |         1062 |         1062 |         1062 |         2086 |         2086 |         2086 |         2086 |         4140 |         4140 |         4140 |         4140 |         8248 |         8248 |         8248 |         8248 |
mem.page_mem                                  160k |         160k |         160k |         160k |         192k |         192k |         192k |         192k |         256k |         256k |         256k |         256k |         384k |         384k |         384k |         384k |         640k |         640k |         640k |         640k |        1152k |        1152k |        1152k |        1152k |        2176k |        2176k |        2176k |        2176k |        4248k |        4248k |        4248k |        4248k |        8344k |        8344k |        8344k |        8344k |       16560k |       16560k |       16560k |       16560k |       32992k |       32992k |       32992k |       32992k |
mem.ptab_misses                                 40 |           40 |           40 |           40 |           48 |           48 |           48 |           48 |           64 |           64 |           64 |           64 |           96 |           96 |           96 |           96 |          160 |          160 |          160 |          160 |          288 |          288 |          288 |          288 |          544 |          544 |          544 |          544 |         1067 |         1067 |         1067 |         1067 |        79829 |        79829 |        79829 |        79829 |        88545 |        88545 |        88545 |        88545 |        85993 |        85993 |        85993 |        85993 |
mem.ptab_accesses                          4514738 |      4514738 |      4514738 |      4514738 |      8592112 |      8592112 |      8592112 |      8592112 |     18659760 |     18659760 |     18659760 |     18659760 |     37439094 |     37439094 |     37439094 |     37439094 |     82593670 |     82593670 |     82593670 |     82593670 |    167608166 |    167608166 |    167608166 |    167608166 |    354209768 |    354209768 |    354209768 |    354209768 |   1020138422 |   1020138422 |   1020138422 |   1020138422 |   2162191614 |   2162191614 |   2162191614 |   2162191614 |   4726191868 |   4726191868 |   4726191868 |   4726191868 |   9989085138 |   9989085138 |   9989085138 |   9989085138 |
mem.ptab_miss_rate                          0.0000 |       0.0000 |       0.0000 |       0.0000 |       0.0000 |       0.0000 |       0.0000 |       0.0000 |       0.0000 |       0.0000 |       0.0000 |       0.0000 |       0.0000 |       0.0000 |       0.0000 |       0.0000 |       0.0000 |       0.0000 |       0.0000 |       0.0000 |       0.0000 |       0.0000 |       0.0000 |       0.0000 |       0.0000 |       0.0000 |       0.0000 |       0.0000 |       0.0000 |       0.0000 |       0.0000 |       0.0000 |       0.0000 |       0.0000 |       0.0000 |       0.0000 |       0.0000 |       0.0000 |       0.0000 |       0.0000 |       0.0000 |       0.0000 |       0.0000 |       0.0000 |
-------------------------------------------------------------------------------------------------
sim-bpred                                     4096 |         4096 |         4096 |         4096 |         4096 |         4096 |         4096 |         8192 |         8192 |         8192 |         8192 |         8192 |         8192 |         8192 |        16384 |        16384 |        16384 |        16384 |        16384 |        16384 |        16384 |        32768 |        32768 |        32768 |        32768 |        32768 |        32768 |        32768 |        65536 |        65536 |        65536 |        65536 |        65536 |        65536 |        65536 |       131072 |       131072 |       131072 |       131072 |       131072 |       131072 |       131072 |       262144 |       262144 |       262144 |       262144 |       262144 |       262144 |       262144 |       524288 |       524288 |       524288 |       524288 |       524288 |       524288 |       524288 |      1048576 |      1048576 |      1048576 |      1048576 |      1048576 |      1048576 |      1048576 |      2097152 |      2097152 |      2097152 |      2097152 |      2097152 |      2097152 |      2097152 |      4194304 |      4194304 |      4194304 |      4194304 |      4194304 |      4194304 |      4194304 |
-bpred bimod -bpred:bimod 512
-bpred bimod -bpred:bimod 1024
-bpred bimod -bpred:bimod 2048
-bpred 2lev -bpred:2lev 1 512 10 1
-bpred 2lev -bpred:2lev 1 1024 10 1
-bpred 2lev -bpred:2lev 1 2048 10 1
-bpred 2lev -bpred:2lev 1 4096 10 1
-------------------------------------------------------------------------------------------------
sim_num_insn                                860224 |       860224 |       860224 |       860224 |       860224 |       860224 |       860224 |      1749933 |      1749933 |      1749933 |      1749933 |      1749933 |      1749933 |      1749933 |      3960495 |      3960495 |      3960495 |      3960495 |      3960495 |      3960495 |      3960495 |      8062750 |      8062750 |      8062750 |      8062750 |      8062750 |      8062750 |      8062750 |     17979435 |     17979435 |     17979435 |     17979435 |     17979435 |     17979435 |     17979435 |     36566862 |     36566862 |     36566862 |     36566862 |     36566862 |     36566862 |     36566862 |     77441593 |     77441593 |     77441593 |     77441593 |     77441593 |     77441593 |     77441593 |    223370518 |    223370518 |    223370518 |    223370518 |    223370518 |    223370518 |    223370518 |    473222836 |    473222836 |    473222836 |    473222836 |    473222836 |    473222836 |    473222836 |   1035624913 |   1035624913 |   1035624913 |   1035624913 |   1035624913 |   1035624913 |   1035624913 |   2186591536 |   2186591536 |   2186591536 |   2186591536 |   2186591536 |   2186591536 |   2186591536 |
sim_num_refs                                229031 |       229031 |       229031 |       229031 |       229031 |       229031 |       229031 |       471820 |       471820 |       471820 |       471820 |       471820 |       471820 |       471820 |      1051704 |      1051704 |      1051704 |      1051704 |      1051704 |      1051704 |      1051704 |      2171277 |      2171277 |      2171277 |      2171277 |      2171277 |      2171277 |      2171277 |      4784123 |      4784123 |      4784123 |      4784123 |      4784123 |      4784123 |      4784123 |      9854373 |      9854373 |      9854373 |      9854373 |      9854373 |      9854373 |      9854373 |     20881424 |     20881424 |     20881424 |     20881424 |     20881424 |     20881424 |     20881424 |     60939325 |     60939325 |     60939325 |     60939325 |     60939325 |     60939325 |     60939325 |    130164133 |    130164133 |    130164133 |    130164133 |    130164133 |    130164133 |    130164133 |    283165802 |    283165802 |    283165802 |    283165802 |    283165802 |    283165802 |    283165802 |    604290583 |    604290583 |    604290583 |    604290583 |    604290583 |    604290583 |    604290583 |
sim_elapsed_time                                 1 |            1 |            1 |            1 |            1 |            1 |            1 |            1 |            1 |            1 |            1 |            1 |            1 |            1 |            1 |            1 |            1 |            1 |            1 |            1 |            1 |            1 |            1 |            1 |            1 |            1 |            1 |            1 |            2 |            2 |            2 |            2 |            2 |            2 |            2 |            4 |            4 |            4 |            4 |            4 |            4 |            4 |            8 |            9 |            9 |            9 |            8 |            9 |            9 |           26 |           25 |           26 |           25 |           25 |           26 |           26 |           54 |           54 |           54 |           55 |           56 |           55 |           55 |          119 |          118 |          119 |          120 |          120 |          120 |          121 |          253 |          252 |          252 |          256 |          257 |          255 |          256 |
sim_inst_rate                          860224.0000 |  860224.0000 |  860224.0000 |  860224.0000 |  860224.0000 |  860224.0000 |  860224.0000 | 1749933.0000 | 1749933.0000 | 1749933.0000 | 1749933.0000 | 1749933.0000 | 1749933.0000 | 1749933.0000 | 3960495.0000 | 3960495.0000 | 3960495.0000 | 3960495.0000 | 3960495.0000 | 3960495.0000 | 3960495.0000 | 8062750.0000 | 8062750.0000 | 8062750.0000 | 8062750.0000 | 8062750.0000 | 8062750.0000 | 8062750.0000 | 8989717.5000 | 8989717.5000 | 8989717.5000 | 8989717.5000 | 8989717.5000 | 8989717.5000 | 8989717.5000 | 9141715.5000 | 9141715.5000 | 9141715.5000 | 9141715.5000 | 9141715.5000 | 9141715.5000 | 9141715.5000 | 9680199.1250 | 8604621.4444 | 8604621.4444 | 8604621.4444 | 9680199.1250 | 8604621.4444 | 8604621.4444 | 8591173.7692 | 8934820.7200 | 8591173.7692 | 8934820.7200 | 8934820.7200 | 8591173.7692 | 8591173.7692 | 8763385.8519 | 8763385.8519 | 8763385.8519 | 8604051.5636 | 8450407.7857 | 8604051.5636 | 8604051.5636 | 8702730.3613 | 8776482.3136 | 8702730.3613 | 8630207.6083 | 8630207.6083 | 8630207.6083 | 8558883.5785 | 8642654.2925 | 8676950.5397 | 8676950.5397 | 8541373.1875 | 8508138.2724 | 8574868.7686 | 8541373.1875 |
sim_num_branches                            112989 |       112989 |       112989 |       112989 |       112989 |       112989 |       112989 |       235678 |       235678 |       235678 |       235678 |       235678 |       235678 |       235678 |       514871 |       514871 |       514871 |       514871 |       514871 |       514871 |       514871 |      1072420 |      1072420 |      1072420 |      1072420 |      1072420 |      1072420 |      1072420 |      2319229 |      2319229 |      2319229 |      2319229 |      2319229 |      2319229 |      2319229 |      4812467 |      4812467 |      4812467 |      4812467 |      4812467 |      4812467 |      4812467 |     10146627 |     10146627 |     10146627 |     10146627 |     10146627 |     10146627 |     10146627 |     30675876 |     30675876 |     30675876 |     30675876 |     30675876 |     30675876 |     30675876 |     67186426 |     67186426 |     67186426 |     67186426 |     67186426 |     67186426 |     67186426 |    145952040 |    145952040 |    145952040 |    145952040 |    145952040 |    145952040 |    145952040 |    314542605 |    314542605 |    314542605 |    314542605 |    314542605 |    314542605 |    314542605 |
sim_IPB                                     7.6133 |       7.6133 |       7.6133 |       7.6133 |       7.6133 |       7.6133 |       7.6133 |       7.4251 |       7.4251 |       7.4251 |       7.4251 |       7.4251 |       7.4251 |       7.4251 |       7.6922 |       7.6922 |       7.6922 |       7.6922 |       7.6922 |       7.6922 |       7.6922 |       7.5183 |       7.5183 |       7.5183 |       7.5183 |       7.5183 |       7.5183 |       7.5183 |       7.7523 |       7.7523 |       7.7523 |       7.7523 |       7.7523 |       7.7523 |       7.7523 |       7.5984 |       7.5984 |       7.5984 |       7.5984 |       7.5984 |       7.5984 |       7.5984 |       7.6322 |       7.6322 |       7.6322 |       7.6322 |       7.6322 |       7.6322 |       7.6322 |       7.2816 |       7.2816 |       7.2816 |       7.2816 |       7.2816 |       7.2816 |       7.2816 |       7.0434 |       7.0434 |       7.0434 |       7.0434 |       7.0434 |       7.0434 |       7.0434 |       7.0957 |       7.0957 |       7.0957 |       7.0957 |       7.0957 |       7.0957 |       7.0957 |       6.9517 |       6.9517 |       6.9517 |       6.9517 |       6.9517 |       6.9517 |       6.9517 |
bpred_bimod.lookups                         112989 |       112989 |       112989 |xxxxxxxxxxxxx |xxxxxxxxxxxxx |xxxxxxxxxxxxx |xxxxxxxxxxxxx |       235678 |       235678 |       235678 |xxxxxxxxxxxxx |xxxxxxxxxxxxx |xxxxxxxxxxxxx |xxxxxxxxxxxxx |       514871 |       514871 |       514871 |xxxxxxxxxxxxx |xxxxxxxxxxxxx |xxxxxxxxxxxxx |xxxxxxxxxxxxx |      1072420 |      1072420 |      1072420 |xxxxxxxxxxxxx |xxxxxxxxxxxxx |xxxxxxxxxxxxx |xxxxxxxxxxxxx |      2319229 |      2319229 |      2319229 |xxxxxxxxxxxxx |xxxxxxxxxxxxx |xxxxxxxxxxxxx |xxxxxxxxxxxxx |      4812467 |      4812467 |      4812467 |xxxxxxxxxxxxx |xxxxxxxxxxxxx |xxxxxxxxxxxxx |xxxxxxxxxxxxx |     10146627 |     10146627 |     10146627 |xxxxxxxxxxxxx |xxxxxxxxxxxxx |xxxxxxxxxxxxx |xxxxxxxxxxxxx |     30675876 |     30675876 |     30675876 |xxxxxxxxxxxxx |xxxxxxxxxxxxx |xxxxxxxxxxxxx |xxxxxxxxxxxxx |     67186426 |     67186426 |     67186426 |xxxxxxxxxxxxx |xxxxxxxxxxxxx |xxxxxxxxxxxxx |xxxxxxxxxxxxx |    145952040 |    145952040 |    145952040 |xxxxxxxxxxxxx |xxxxxxxxxxxxx |xxxxxxxxxxxxx |xxxxxxxxxxxxx |    314542605 |    314542605 |    314542605 |
bpred_bimod.updates                         112989 |       112989 |       112989 |xxxxxxxxxxxxx |xxxxxxxxxxxxx |xxxxxxxxxxxxx |xxxxxxxxxxxxx |       235678 |       235678 |       235678 |xxxxxxxxxxxxx |xxxxxxxxxxxxx |xxxxxxxxxxxxx |xxxxxxxxxxxxx |       514871 |       514871 |       514871 |xxxxxxxxxxxxx |xxxxxxxxxxxxx |xxxxxxxxxxxxx |xxxxxxxxxxxxx |      1072420 |      1072420 |      1072420 |xxxxxxxxxxxxx |xxxxxxxxxxxxx |xxxxxxxxxxxxx |xxxxxxxxxxxxx |      2319229 |      2319229 |      2319229 |xxxxxxxxxxxxx |xxxxxxxxxxxxx |xxxxxxxxxxxxx |xxxxxxxxxxxxx |      4812467 |      4812467 |      4812467 |xxxxxxxxxxxxx |xxxxxxxxxxxxx |xxxxxxxxxxxxx |xxxxxxxxxxxxx |     10146627 |     10146627 |     10146627 |xxxxxxxxxxxxx |xxxxxxxxxxxxx |xxxxxxxxxxxxx |xxxxxxxxxxxxx |     30675876 |     30675876 |     30675876 |xxxxxxxxxxxxx |xxxxxxxxxxxxx |xxxxxxxxxxxxx |xxxxxxxxxxxxx |     67186426 |     67186426 |     67186426 |xxxxxxxxxxxxx |xxxxxxxxxxxxx |xxxxxxxxxxxxx |xxxxxxxxxxxxx |    145952040 |    145952040 |    145952040 |xxxxxxxxxxxxx |xxxxxxxxxxxxx |xxxxxxxxxxxxx |xxxxxxxxxxxxx |    314542605 |    314542605 |    314542605 |
bpred_bimod.addr_hits                        87342 |        87350 |        87355 |xxxxxxxxxxxxx |xxxxxxxxxxxxx |xxxxxxxxxxxxx |xxxxxxxxxxxxx |       183867 |       183873 |       183876 |xxxxxxxxxxxxx |xxxxxxxxxxxxx |xxxxxxxxxxxxx |xxxxxxxxxxxxx |       396501 |       396522 |       396524 |xxxxxxxxxxxxx |xxxxxxxxxxxxx |xxxxxxxxxxxxx |xxxxxxxxxxxxx |       833657 |       833660 |       833664 |xxxxxxxxxxxxx |xxxxxxxxxxxxx |xxxxxxxxxxxxx |xxxxxxxxxxxxx |      1781231 |      1781309 |      1781313 |xxxxxxxxxxxxx |xxxxxxxxxxxxx |xxxxxxxxxxxxx |xxxxxxxxxxxxx |      3727760 |      3727801 |      3727805 |xxxxxxxxxxxxx |xxxxxxxxxxxxx |xxxxxxxxxxxxx |xxxxxxxxxxxxx |      7843818 |      7843876 |      7843938 |xxxxxxxxxxxxx |xxxxxxxxxxxxx |xxxxxxxxxxxxx |xxxxxxxxxxxxx |     24443842 |     24444437 |     24444439 |xxxxxxxxxxxxx |xxxxxxxxxxxxx |xxxxxxxxxxxxx |xxxxxxxxxxxxx |     54430690 |     54431006 |     54431015 |xxxxxxxxxxxxx |xxxxxxxxxxxxx |xxxxxxxxxxxxx |xxxxxxxxxxxxx |    116877365 |    116879553 |    116879553 |xxxxxxxxxxxxx |xxxxxxxxxxxxx |xxxxxxxxxxxxx |xxxxxxxxxxxxx |    252087238 |    252088656 |    252088657 |
bpred_bimod.dir_hits                         87492 |        87498 |        87501 |xxxxxxxxxxxxx |xxxxxxxxxxxxx |xxxxxxxxxxxxx |xxxxxxxxxxxxx |       184015 |       184019 |       184022 |xxxxxxxxxxxxx |xxxxxxxxxxxxx |xxxxxxxxxxxxx |xxxxxxxxxxxxx |       396653 |       396669 |       396669 |xxxxxxxxxxxxx |xxxxxxxxxxxxx |xxxxxxxxxxxxx |xxxxxxxxxxxxx |       833801 |       833805 |       833809 |xxxxxxxxxxxxx |xxxxxxxxxxxxx |xxxxxxxxxxxxx |xxxxxxxxxxxxx |      1781378 |      1781455 |      1781458 |xxxxxxxxxxxxx |xxxxxxxxxxxxx |xxxxxxxxxxxxx |xxxxxxxxxxxxx |      3727905 |      3727947 |      3727951 |xxxxxxxxxxxxx |xxxxxxxxxxxxx |xxxxxxxxxxxxx |xxxxxxxxxxxxx |      7843965 |      7844025 |      7844088 |xxxxxxxxxxxxx |xxxxxxxxxxxxx |xxxxxxxxxxxxx |xxxxxxxxxxxxx |     24444064 |     24444657 |     24444657 |xxxxxxxxxxxxx |xxxxxxxxxxxxx |xxxxxxxxxxxxx |xxxxxxxxxxxxx |     54430916 |     54431231 |     54431237 |xxxxxxxxxxxxx |xxxxxxxxxxxxx |xxxxxxxxxxxxx |xxxxxxxxxxxxx |    116877595 |    116879781 |    116879779 |xxxxxxxxxxxxx |xxxxxxxxxxxxx |xxxxxxxxxxxxx |xxxxxxxxxxxxx |    252087470 |    252088887 |    252088886 |
bpred_bimod.misses                           25497 |        25491 |        25488 |xxxxxxxxxxxxx |xxxxxxxxxxxxx |xxxxxxxxxxxxx |xxxxxxxxxxxxx |        51663 |        51659 |        51656 |xxxxxxxxxxxxx |xxxxxxxxxxxxx |xxxxxxxxxxxxx |xxxxxxxxxxxxx |       118218 |       118202 |       118202 |xxxxxxxxxxxxx |xxxxxxxxxxxxx |xxxxxxxxxxxxx |xxxxxxxxxxxxx |       238619 |       238615 |       238611 |xxxxxxxxxxxxx |xxxxxxxxxxxxx |xxxxxxxxxxxxx |xxxxxxxxxxxxx |       537851 |       537774 |       537771 |xxxxxxxxxxxxx |xxxxxxxxxxxxx |xxxxxxxxxxxxx |xxxxxxxxxxxxx |      1084562 |      1084520 |      1084516 |xxxxxxxxxxxxx |xxxxxxxxxxxxx |xxxxxxxxxxxxx |xxxxxxxxxxxxx |      2302662 |      2302602 |      2302539 |xxxxxxxxxxxxx |xxxxxxxxxxxxx |xxxxxxxxxxxxx |xxxxxxxxxxxxx |      6231812 |      6231219 |      6231219 |xxxxxxxxxxxxx |xxxxxxxxxxxxx |xxxxxxxxxxxxx |xxxxxxxxxxxxx |     12755510 |     12755195 |     12755189 |xxxxxxxxxxxxx |xxxxxxxxxxxxx |xxxxxxxxxxxxx |xxxxxxxxxxxxx |     29074445 |     29072259 |     29072261 |xxxxxxxxxxxxx |xxxxxxxxxxxxx |xxxxxxxxxxxxx |xxxxxxxxxxxxx |     62455135 |     62453718 |     62453719 |
bpred_bimod.jr_hits                             79 |           79 |           79 |xxxxxxxxxxxxx |xxxxxxxxxxxxx |xxxxxxxxxxxxx |xxxxxxxxxxxxx |           87 |           87 |           87 |xxxxxxxxxxxxx |xxxxxxxxxxxxx |xxxxxxxxxxxxx |xxxxxxxxxxxxx |          103 |          103 |          103 |xxxxxxxxxxxxx |xxxxxxxxxxxxx |xxxxxxxxxxxxx |xxxxxxxxxxxxx |          135 |          135 |          135 |xxxxxxxxxxxxx |xxxxxxxxxxxxx |xxxxxxxxxxxxx |xxxxxxxxxxxxx |          199 |          199 |          199 |xxxxxxxxxxxxx |xxxxxxxxxxxxx |xxxxxxxxxxxxx |xxxxxxxxxxxxx |          327 |          327 |          327 |xxxxxxxxxxxxx |xxxxxxxxxxxxx |xxxxxxxxxxxxx |xxxxxxxxxxxxx |          583 |          583 |          583 |xxxxxxxxxxxxx |xxxxxxxxxxxxx |xxxxxxxxxxxxx |xxxxxxxxxxxxx |       525413 |       525413 |       525413 |xxxxxxxxxxxxx |xxxxxxxxxxxxx |xxxxxxxxxxxxx |xxxxxxxxxxxxx |      1050727 |      1050727 |      1050727 |xxxxxxxxxxxxx |xxxxxxxxxxxxx |xxxxxxxxxxxxx |xxxxxxxxxxxxx |      2101355 |      2101355 |      2101355 |xxxxxxxxxxxxx |xxxxxxxxxxxxx |xxxxxxxxxxxxx |xxxxxxxxxxxxx |      4202611 |      4202611 |      4202611 |
bpred_bimod.jr_seen                             80 |           80 |           80 |xxxxxxxxxxxxx |xxxxxxxxxxxxx |xxxxxxxxxxxxx |xxxxxxxxxxxxx |           88 |           88 |           88 |xxxxxxxxxxxxx |xxxxxxxxxxxxx |xxxxxxxxxxxxx |xxxxxxxxxxxxx |          104 |          104 |          104 |xxxxxxxxxxxxx |xxxxxxxxxxxxx |xxxxxxxxxxxxx |xxxxxxxxxxxxx |          136 |          136 |          136 |xxxxxxxxxxxxx |xxxxxxxxxxxxx |xxxxxxxxxxxxx |xxxxxxxxxxxxx |          200 |          200 |          200 |xxxxxxxxxxxxx |xxxxxxxxxxxxx |xxxxxxxxxxxxx |xxxxxxxxxxxxx |          328 |          328 |          328 |xxxxxxxxxxxxx |xxxxxxxxxxxxx |xxxxxxxxxxxxx |xxxxxxxxxxxxx |          584 |          584 |          584 |xxxxxxxxxxxxx |xxxxxxxxxxxxx |xxxxxxxxxxxxx |xxxxxxxxxxxxx |       525414 |       525414 |       525414 |xxxxxxxxxxxxx |xxxxxxxxxxxxx |xxxxxxxxxxxxx |xxxxxxxxxxxxx |      1050728 |      1050728 |      1050728 |xxxxxxxxxxxxx |xxxxxxxxxxxxx |xxxxxxxxxxxxx |xxxxxxxxxxxxx |      2101356 |      2101356 |      2101356 |xxxxxxxxxxxxx |xxxxxxxxxxxxx |xxxxxxxxxxxxx |xxxxxxxxxxxxx |      4202612 |      4202612 |      4202612 |
bpred_bimod.jr_non_ras_hits.PP                   0 |            0 |            0 |xxxxxxxxxxxxx |xxxxxxxxxxxxx |xxxxxxxxxxxxx |xxxxxxxxxxxxx |            0 |            0 |            0 |xxxxxxxxxxxxx |xxxxxxxxxxxxx |xxxxxxxxxxxxx |xxxxxxxxxxxxx |            0 |            0 |            0 |xxxxxxxxxxxxx |xxxxxxxxxxxxx |xxxxxxxxxxxxx |xxxxxxxxxxxxx |            0 |            0 |            0 |xxxxxxxxxxxxx |xxxxxxxxxxxxx |xxxxxxxxxxxxx |xxxxxxxxxxxxx |            0 |            0 |            0 |xxxxxxxxxxxxx |xxxxxxxxxxxxx |xxxxxxxxxxxxx |xxxxxxxxxxxxx |            0 |            0 |            0 |xxxxxxxxxxxxx |xxxxxxxxxxxxx |xxxxxxxxxxxxx |xxxxxxxxxxxxx |            0 |            0 |            0 |xxxxxxxxxxxxx |xxxxxxxxxxxxx |xxxxxxxxxxxxx |xxxxxxxxxxxxx |            0 |            0 |            0 |xxxxxxxxxxxxx |xxxxxxxxxxxxx |xxxxxxxxxxxxx |xxxxxxxxxxxxx |            0 |            0 |            0 |xxxxxxxxxxxxx |xxxxxxxxxxxxx |xxxxxxxxxxxxx |xxxxxxxxxxxxx |            0 |            0 |            0 |xxxxxxxxxxxxx |xxxxxxxxxxxxx |xxxxxxxxxxxxx |xxxxxxxxxxxxx |            0 |            0 |            0 |
bpred_bimod.jr_non_ras_seen.PP                   0 |            0 |            0 |xxxxxxxxxxxxx |xxxxxxxxxxxxx |xxxxxxxxxxxxx |xxxxxxxxxxxxx |            0 |            0 |            0 |xxxxxxxxxxxxx |xxxxxxxxxxxxx |xxxxxxxxxxxxx |xxxxxxxxxxxxx |            0 |            0 |            0 |xxxxxxxxxxxxx |xxxxxxxxxxxxx |xxxxxxxxxxxxx |xxxxxxxxxxxxx |            0 |            0 |            0 |xxxxxxxxxxxxx |xxxxxxxxxxxxx |xxxxxxxxxxxxx |xxxxxxxxxxxxx |            0 |            0 |            0 |xxxxxxxxxxxxx |xxxxxxxxxxxxx |xxxxxxxxxxxxx |xxxxxxxxxxxxx |            0 |            0 |            0 |xxxxxxxxxxxxx |xxxxxxxxxxxxx |xxxxxxxxxxxxx |xxxxxxxxxxxxx |            0 |            0 |            0 |xxxxxxxxxxxxx |xxxxxxxxxxxxx |xxxxxxxxxxxxx |xxxxxxxxxxxxx |            1 |            1 |            1 |xxxxxxxxxxxxx |xxxxxxxxxxxxx |xxxxxxxxxxxxx |xxxxxxxxxxxxx |            1 |            1 |            1 |xxxxxxxxxxxxx |xxxxxxxxxxxxx |xxxxxxxxxxxxx |xxxxxxxxxxxxx |            1 |            1 |            1 |xxxxxxxxxxxxx |xxxxxxxxxxxxx |xxxxxxxxxxxxx |xxxxxxxxxxxxx |            1 |            1 |            1 |
bpred_bimod.bpred_addr_rate                 0.7730 |       0.7731 |       0.7731 |xxxxxxxxxxxxx |xxxxxxxxxxxxx |xxxxxxxxxxxxx |xxxxxxxxxxxxx |       0.7802 |       0.7802 |       0.7802 |xxxxxxxxxxxxx |xxxxxxxxxxxxx |xxxxxxxxxxxxx |xxxxxxxxxxxxx |       0.7701 |       0.7701 |       0.7701 |xxxxxxxxxxxxx |xxxxxxxxxxxxx |xxxxxxxxxxxxx |xxxxxxxxxxxxx |       0.7774 |       0.7774 |       0.7774 |xxxxxxxxxxxxx |xxxxxxxxxxxxx |xxxxxxxxxxxxx |xxxxxxxxxxxxx |       0.7680 |       0.7681 |       0.7681 |xxxxxxxxxxxxx |xxxxxxxxxxxxx |xxxxxxxxxxxxx |xxxxxxxxxxxxx |       0.7746 |       0.7746 |       0.7746 |xxxxxxxxxxxxx |xxxxxxxxxxxxx |xxxxxxxxxxxxx |xxxxxxxxxxxxx |       0.7730 |       0.7731 |       0.7731 |xxxxxxxxxxxxx |xxxxxxxxxxxxx |xxxxxxxxxxxxx |xxxxxxxxxxxxx |       0.7968 |       0.7969 |       0.7969 |xxxxxxxxxxxxx |xxxxxxxxxxxxx |xxxxxxxxxxxxx |xxxxxxxxxxxxx |       0.8101 |       0.8101 |       0.8101 |xxxxxxxxxxxxx |xxxxxxxxxxxxx |xxxxxxxxxxxxx |xxxxxxxxxxxxx |       0.8008 |       0.8008 |       0.8008 |xxxxxxxxxxxxx |xxxxxxxxxxxxx |xxxxxxxxxxxxx |xxxxxxxxxxxxx |       0.8014 |       0.8014 |       0.8014 |
bpred_bimod.bpred_dir_rate                  0.7743 |       0.7744 |       0.7744 |xxxxxxxxxxxxx |xxxxxxxxxxxxx |xxxxxxxxxxxxx |xxxxxxxxxxxxx |       0.7808 |       0.7808 |       0.7808 |xxxxxxxxxxxxx |xxxxxxxxxxxxx |xxxxxxxxxxxxx |xxxxxxxxxxxxx |       0.7704 |       0.7704 |       0.7704 |xxxxxxxxxxxxx |xxxxxxxxxxxxx |xxxxxxxxxxxxx |xxxxxxxxxxxxx |       0.7775 |       0.7775 |       0.7775 |xxxxxxxxxxxxx |xxxxxxxxxxxxx |xxxxxxxxxxxxx |xxxxxxxxxxxxx |       0.7681 |       0.7681 |       0.7681 |xxxxxxxxxxxxx |xxxxxxxxxxxxx |xxxxxxxxxxxxx |xxxxxxxxxxxxx |       0.7746 |       0.7746 |       0.7746 |xxxxxxxxxxxxx |xxxxxxxxxxxxx |xxxxxxxxxxxxx |xxxxxxxxxxxxx |       0.7731 |       0.7731 |       0.7731 |xxxxxxxxxxxxx |xxxxxxxxxxxxx |xxxxxxxxxxxxx |xxxxxxxxxxxxx |       0.7968 |       0.7969 |       0.7969 |xxxxxxxxxxxxx |xxxxxxxxxxxxx |xxxxxxxxxxxxx |xxxxxxxxxxxxx |       0.8101 |       0.8102 |       0.8102 |xxxxxxxxxxxxx |xxxxxxxxxxxxx |xxxxxxxxxxxxx |xxxxxxxxxxxxx |       0.8008 |       0.8008 |       0.8008 |xxxxxxxxxxxxx |xxxxxxxxxxxxx |xxxxxxxxxxxxx |xxxxxxxxxxxxx |       0.8014 |       0.8014 |       0.8014 |
bpred_bimod.bpred_jr_rate                   0.9875 |       0.9875 |       0.9875 |xxxxxxxxxxxxx |xxxxxxxxxxxxx |xxxxxxxxxxxxx |xxxxxxxxxxxxx |       0.9886 |       0.9886 |       0.9886 |xxxxxxxxxxxxx |xxxxxxxxxxxxx |xxxxxxxxxxxxx |xxxxxxxxxxxxx |       0.9904 |       0.9904 |       0.9904 |xxxxxxxxxxxxx |xxxxxxxxxxxxx |xxxxxxxxxxxxx |xxxxxxxxxxxxx |       0.9926 |       0.9926 |       0.9926 |xxxxxxxxxxxxx |xxxxxxxxxxxxx |xxxxxxxxxxxxx |xxxxxxxxxxxxx |       0.9950 |       0.9950 |       0.9950 |xxxxxxxxxxxxx |xxxxxxxxxxxxx |xxxxxxxxxxxxx |xxxxxxxxxxxxx |       0.9970 |       0.9970 |       0.9970 |xxxxxxxxxxxxx |xxxxxxxxxxxxx |xxxxxxxxxxxxx |xxxxxxxxxxxxx |       0.9983 |       0.9983 |       0.9983 |xxxxxxxxxxxxx |xxxxxxxxxxxxx |xxxxxxxxxxxxx |xxxxxxxxxxxxx |       1.0000 |       1.0000 |       1.0000 |xxxxxxxxxxxxx |xxxxxxxxxxxxx |xxxxxxxxxxxxx |xxxxxxxxxxxxx |       1.0000 |       1.0000 |       1.0000 |xxxxxxxxxxxxx |xxxxxxxxxxxxx |xxxxxxxxxxxxx |xxxxxxxxxxxxx |       1.0000 |       1.0000 |       1.0000 |xxxxxxxxxxxxx |xxxxxxxxxxxxx |xxxxxxxxxxxxx |xxxxxxxxxxxxx |       1.0000 |       1.0000 |       1.0000 |
bpred_bimod.bpred_jr_non_ras_rate.PP       <error: |      <error: |      <error: |xxxxxxxxxxxxx |xxxxxxxxxxxxx |xxxxxxxxxxxxx |xxxxxxxxxxxxx |      <error: |      <error: |      <error: |xxxxxxxxxxxxx |xxxxxxxxxxxxx |xxxxxxxxxxxxx |xxxxxxxxxxxxx |      <error: |      <error: |      <error: |xxxxxxxxxxxxx |xxxxxxxxxxxxx |xxxxxxxxxxxxx |xxxxxxxxxxxxx |      <error: |      <error: |      <error: |xxxxxxxxxxxxx |xxxxxxxxxxxxx |xxxxxxxxxxxxx |xxxxxxxxxxxxx |      <error: |      <error: |      <error: |xxxxxxxxxxxxx |xxxxxxxxxxxxx |xxxxxxxxxxxxx |xxxxxxxxxxxxx |      <error: |      <error: |      <error: |xxxxxxxxxxxxx |xxxxxxxxxxxxx |xxxxxxxxxxxxx |xxxxxxxxxxxxx |      <error: |      <error: |      <error: |xxxxxxxxxxxxx |xxxxxxxxxxxxx |xxxxxxxxxxxxx |xxxxxxxxxxxxx |       0.0000 |       0.0000 |       0.0000 |xxxxxxxxxxxxx |xxxxxxxxxxxxx |xxxxxxxxxxxxx |xxxxxxxxxxxxx |       0.0000 |       0.0000 |       0.0000 |xxxxxxxxxxxxx |xxxxxxxxxxxxx |xxxxxxxxxxxxx |xxxxxxxxxxxxx |       0.0000 |       0.0000 |       0.0000 |xxxxxxxxxxxxx |xxxxxxxxxxxxx |xxxxxxxxxxxxx |xxxxxxxxxxxxx |       0.0000 |       0.0000 |       0.0000 |
bpred_bimod.retstack_pushes                     82 |           82 |           82 |xxxxxxxxxxxxx |xxxxxxxxxxxxx |xxxxxxxxxxxxx |xxxxxxxxxxxxx |           90 |           90 |           90 |xxxxxxxxxxxxx |xxxxxxxxxxxxx |xxxxxxxxxxxxx |xxxxxxxxxxxxx |          106 |          106 |          106 |xxxxxxxxxxxxx |xxxxxxxxxxxxx |xxxxxxxxxxxxx |xxxxxxxxxxxxx |          138 |          138 |          138 |xxxxxxxxxxxxx |xxxxxxxxxxxxx |xxxxxxxxxxxxx |xxxxxxxxxxxxx |          202 |          202 |          202 |xxxxxxxxxxxxx |xxxxxxxxxxxxx |xxxxxxxxxxxxx |xxxxxxxxxxxxx |          330 |          330 |          330 |xxxxxxxxxxxxx |xxxxxxxxxxxxx |xxxxxxxxxxxxx |xxxxxxxxxxxxx |          586 |          586 |          586 |xxxxxxxxxxxxx |xxxxxxxxxxxxx |xxxxxxxxxxxxx |xxxxxxxxxxxxx |       525415 |       525415 |       525415 |xxxxxxxxxxxxx |xxxxxxxxxxxxx |xxxxxxxxxxxxx |xxxxxxxxxxxxx |      1050729 |      1050729 |      1050729 |xxxxxxxxxxxxx |xxxxxxxxxxxxx |xxxxxxxxxxxxx |xxxxxxxxxxxxx |      2101357 |      2101357 |      2101357 |xxxxxxxxxxxxx |xxxxxxxxxxxxx |xxxxxxxxxxxxx |xxxxxxxxxxxxx |      4202613 |      4202613 |      4202613 |
bpred_bimod.retstack_pops                       80 |           80 |           80 |xxxxxxxxxxxxx |xxxxxxxxxxxxx |xxxxxxxxxxxxx |xxxxxxxxxxxxx |           88 |           88 |           88 |xxxxxxxxxxxxx |xxxxxxxxxxxxx |xxxxxxxxxxxxx |xxxxxxxxxxxxx |          104 |          104 |          104 |xxxxxxxxxxxxx |xxxxxxxxxxxxx |xxxxxxxxxxxxx |xxxxxxxxxxxxx |          136 |          136 |          136 |xxxxxxxxxxxxx |xxxxxxxxxxxxx |xxxxxxxxxxxxx |xxxxxxxxxxxxx |          200 |          200 |          200 |xxxxxxxxxxxxx |xxxxxxxxxxxxx |xxxxxxxxxxxxx |xxxxxxxxxxxxx |          328 |          328 |          328 |xxxxxxxxxxxxx |xxxxxxxxxxxxx |xxxxxxxxxxxxx |xxxxxxxxxxxxx |          584 |          584 |          584 |xxxxxxxxxxxxx |xxxxxxxxxxxxx |xxxxxxxxxxxxx |xxxxxxxxxxxxx |       525413 |       525413 |       525413 |xxxxxxxxxxxxx |xxxxxxxxxxxxx |xxxxxxxxxxxxx |xxxxxxxxxxxxx |      1050727 |      1050727 |      1050727 |xxxxxxxxxxxxx |xxxxxxxxxxxxx |xxxxxxxxxxxxx |xxxxxxxxxxxxx |      2101355 |      2101355 |      2101355 |xxxxxxxxxxxxx |xxxxxxxxxxxxx |xxxxxxxxxxxxx |xxxxxxxxxxxxx |      4202611 |      4202611 |      4202611 |
bpred_bimod.used_ras.PP                         80 |           80 |           80 |xxxxxxxxxxxxx |xxxxxxxxxxxxx |xxxxxxxxxxxxx |xxxxxxxxxxxxx |           88 |           88 |           88 |xxxxxxxxxxxxx |xxxxxxxxxxxxx |xxxxxxxxxxxxx |xxxxxxxxxxxxx |          104 |          104 |          104 |xxxxxxxxxxxxx |xxxxxxxxxxxxx |xxxxxxxxxxxxx |xxxxxxxxxxxxx |          136 |          136 |          136 |xxxxxxxxxxxxx |xxxxxxxxxxxxx |xxxxxxxxxxxxx |xxxxxxxxxxxxx |          200 |          200 |          200 |xxxxxxxxxxxxx |xxxxxxxxxxxxx |xxxxxxxxxxxxx |xxxxxxxxxxxxx |          328 |          328 |          328 |xxxxxxxxxxxxx |xxxxxxxxxxxxx |xxxxxxxxxxxxx |xxxxxxxxxxxxx |          584 |          584 |          584 |xxxxxxxxxxxxx |xxxxxxxxxxxxx |xxxxxxxxxxxxx |xxxxxxxxxxxxx |       525413 |       525413 |       525413 |xxxxxxxxxxxxx |xxxxxxxxxxxxx |xxxxxxxxxxxxx |xxxxxxxxxxxxx |      1050727 |      1050727 |      1050727 |xxxxxxxxxxxxx |xxxxxxxxxxxxx |xxxxxxxxxxxxx |xxxxxxxxxxxxx |      2101355 |      2101355 |      2101355 |xxxxxxxxxxxxx |xxxxxxxxxxxxx |xxxxxxxxxxxxx |xxxxxxxxxxxxx |      4202611 |      4202611 |      4202611 |
bpred_bimod.ras_hits.PP                         79 |           79 |           79 |xxxxxxxxxxxxx |xxxxxxxxxxxxx |xxxxxxxxxxxxx |xxxxxxxxxxxxx |           87 |           87 |           87 |xxxxxxxxxxxxx |xxxxxxxxxxxxx |xxxxxxxxxxxxx |xxxxxxxxxxxxx |          103 |          103 |          103 |xxxxxxxxxxxxx |xxxxxxxxxxxxx |xxxxxxxxxxxxx |xxxxxxxxxxxxx |          135 |          135 |          135 |xxxxxxxxxxxxx |xxxxxxxxxxxxx |xxxxxxxxxxxxx |xxxxxxxxxxxxx |          199 |          199 |          199 |xxxxxxxxxxxxx |xxxxxxxxxxxxx |xxxxxxxxxxxxx |xxxxxxxxxxxxx |          327 |          327 |          327 |xxxxxxxxxxxxx |xxxxxxxxxxxxx |xxxxxxxxxxxxx |xxxxxxxxxxxxx |          583 |          583 |          583 |xxxxxxxxxxxxx |xxxxxxxxxxxxx |xxxxxxxxxxxxx |xxxxxxxxxxxxx |       525413 |       525413 |       525413 |xxxxxxxxxxxxx |xxxxxxxxxxxxx |xxxxxxxxxxxxx |xxxxxxxxxxxxx |      1050727 |      1050727 |      1050727 |xxxxxxxxxxxxx |xxxxxxxxxxxxx |xxxxxxxxxxxxx |xxxxxxxxxxxxx |      2101355 |      2101355 |      2101355 |xxxxxxxxxxxxx |xxxxxxxxxxxxx |xxxxxxxxxxxxx |xxxxxxxxxxxxx |      4202611 |      4202611 |      4202611 |
bpred_bimod.ras_rate.PP                     0.9875 |       0.9875 |       0.9875 |xxxxxxxxxxxxx |xxxxxxxxxxxxx |xxxxxxxxxxxxx |xxxxxxxxxxxxx |       0.9886 |       0.9886 |       0.9886 |xxxxxxxxxxxxx |xxxxxxxxxxxxx |xxxxxxxxxxxxx |xxxxxxxxxxxxx |       0.9904 |       0.9904 |       0.9904 |xxxxxxxxxxxxx |xxxxxxxxxxxxx |xxxxxxxxxxxxx |xxxxxxxxxxxxx |       0.9926 |       0.9926 |       0.9926 |xxxxxxxxxxxxx |xxxxxxxxxxxxx |xxxxxxxxxxxxx |xxxxxxxxxxxxx |       0.9950 |       0.9950 |       0.9950 |xxxxxxxxxxxxx |xxxxxxxxxxxxx |xxxxxxxxxxxxx |xxxxxxxxxxxxx |       0.9970 |       0.9970 |       0.9970 |xxxxxxxxxxxxx |xxxxxxxxxxxxx |xxxxxxxxxxxxx |xxxxxxxxxxxxx |       0.9983 |       0.9983 |       0.9983 |xxxxxxxxxxxxx |xxxxxxxxxxxxx |xxxxxxxxxxxxx |xxxxxxxxxxxxx |       1.0000 |       1.0000 |       1.0000 |xxxxxxxxxxxxx |xxxxxxxxxxxxx |xxxxxxxxxxxxx |xxxxxxxxxxxxx |       1.0000 |       1.0000 |       1.0000 |xxxxxxxxxxxxx |xxxxxxxxxxxxx |xxxxxxxxxxxxx |xxxxxxxxxxxxx |       1.0000 |       1.0000 |       1.0000 |xxxxxxxxxxxxx |xxxxxxxxxxxxx |xxxxxxxxxxxxx |xxxxxxxxxxxxx |       1.0000 |       1.0000 |       1.0000 |
bpred_2lev.lookups                   xxxxxxxxxxxxx |xxxxxxxxxxxxx |xxxxxxxxxxxxx |       112989 |       112989 |       112989 |       112989 |xxxxxxxxxxxxx |xxxxxxxxxxxxx |xxxxxxxxxxxxx |       235678 |       235678 |       235678 |       235678 |xxxxxxxxxxxxx |xxxxxxxxxxxxx |xxxxxxxxxxxxx |       514871 |       514871 |       514871 |       514871 |xxxxxxxxxxxxx |xxxxxxxxxxxxx |xxxxxxxxxxxxx |      1072420 |      1072420 |      1072420 |      1072420 |xxxxxxxxxxxxx |xxxxxxxxxxxxx |xxxxxxxxxxxxx |      2319229 |      2319229 |      2319229 |      2319229 |xxxxxxxxxxxxx |xxxxxxxxxxxxx |xxxxxxxxxxxxx |      4812467 |      4812467 |      4812467 |      4812467 |xxxxxxxxxxxxx |xxxxxxxxxxxxx |xxxxxxxxxxxxx |     10146627 |     10146627 |     10146627 |     10146627 |xxxxxxxxxxxxx |xxxxxxxxxxxxx |xxxxxxxxxxxxx |     30675876 |     30675876 |     30675876 |     30675876 |xxxxxxxxxxxxx |xxxxxxxxxxxxx |xxxxxxxxxxxxx |     67186426 |     67186426 |     67186426 |     67186426 |xxxxxxxxxxxxx |xxxxxxxxxxxxx |xxxxxxxxxxxxx |    145952040 |    145952040 |    145952040 |    145952040 |xxxxxxxxxxxxx |xxxxxxxxxxxxx |xxxxxxxxxxxxx |    314542605 |    314542605 |    314542605 |    314542605 |
[...]
bpred_2lev.retstack_pushes           xxxxxxxxxxxxx |xxxxxxxxxxxxx |xxxxxxxxxxxxx |           82 |           82 |           82 |           82 |xxxxxxxxxxxxx |xxxxxxxxxxxxx |xxxxxxxxxxxxx |           90 |           90 |           90 |           90 |xxxxxxxxxxxxx |xxxxxxxxxxxxx |xxxxxxxxxxxxx |          106 |          106 |          106 |          106 |xxxxxxxxxxxxx |xxxxxxxxxxxxx |xxxxxxxxxxxxx |          138 |          138 |          138 |          138 |xxxxxxxxxxxxx |xxxxxxxxxxxxx |xxxxxxxxxxxxx |          202 |          202 |          202 |          202 |xxxxxxxxxxxxx |xxxxxxxxxxxxx |xxxxxxxxxxxxx |          330 |          330 |          330 |          330 |xxxxxxxxxxxxx |xxxxxxxxxxxxx |xxxxxxxxxxxxx |          586 |          586 |          586 |          586 |xxxxxxxxxxxxx |xxxxxxxxxxxxx |xxxxxxxxxxxxx |       525415 |       525415 |       525415 |       525415 |xxxxxxxxxxxxx |xxxxxxxxxxxxx |xxxxxxxxxxxxx |      1050729 |      1050729 |      1050729 |      1050729 |xxxxxxxxxxxxx |xxxxxxxxxxxxx |xxxxxxxxxxxxx |      2101357 |      2101357 |      2101357 |      2101357 |xxxxxxxxxxxxx |xxxxxxxxxxxxx |xxxxxxxxxxxxx |      4202613 |      4202613 |      4202613 |      4202613 |
bpred_2lev.retstack_pops             xxxxxxxxxxxxx |xxxxxxxxxxxxx |xxxxxxxxxxxxx |           80 |           80 |           80 |           80 |xxxxxxxxxxxxx |xxxxxxxxxxxxx |xxxxxxxxxxxxx |           88 |           88 |           88 |           88 |xxxxxxxxxxxxx |xxxxxxxxxxxxx |xxxxxxxxxxxxx |          104 |          104 |          104 |          104 |xxxxxxxxxxxxx |xxxxxxxxxxxxx |xxxxxxxxxxxxx |          136 |          136 |          136 |          136 |xxxxxxxxxxxxx |xxxxxxxxxxxxx |xxxxxxxxxxxxx |          200 |          200 |          200 |          200 |xxxxxxxxxxxxx |xxxxxxxxxxxxx |xxxxxxxxxxxxx |          328 |          328 |          328 |          328 |xxxxxxxxxxxxx |xxxxxxxxxxxxx |xxxxxxxxxxxxx |          584 |          584 |          584 |          584 |xxxxxxxxxxxxx |xxxxxxxxxxxxx |xxxxxxxxxxxxx |       525413 |       525413 |       525413 |       525413 |xxxxxxxxxxxxx |xxxxxxxxxxxxx |xxxxxxxxxxxxx |      1050727 |      1050727 |      1050727 |      1050727 |xxxxxxxxxxxxx |xxxxxxxxxxxxx |xxxxxxxxxxxxx |      2101355 |      2101355 |      2101355 |      2101355 |xxxxxxxxxxxxx |xxxxxxxxxxxxx |xxxxxxxxxxxxx |      4202611 |      4202611 |      4202611 |      4202611 |
bpred_2lev.used_ras.PP               xxxxxxxxxxxxx |xxxxxxxxxxxxx |xxxxxxxxxxxxx |           80 |           80 |           80 |           80 |xxxxxxxxxxxxx |xxxxxxxxxxxxx |xxxxxxxxxxxxx |           88 |           88 |           88 |           88 |xxxxxxxxxxxxx |xxxxxxxxxxxxx |xxxxxxxxxxxxx |          104 |          104 |          104 |          104 |xxxxxxxxxxxxx |xxxxxxxxxxxxx |xxxxxxxxxxxxx |          136 |          136 |          136 |          136 |xxxxxxxxxxxxx |xxxxxxxxxxxxx |xxxxxxxxxxxxx |          200 |          200 |          200 |          200 |xxxxxxxxxxxxx |xxxxxxxxxxxxx |xxxxxxxxxxxxx |          328 |          328 |          328 |          328 |xxxxxxxxxxxxx |xxxxxxxxxxxxx |xxxxxxxxxxxxx |          584 |          584 |          584 |          584 |xxxxxxxxxxxxx |xxxxxxxxxxxxx |xxxxxxxxxxxxx |       525413 |       525413 |       525413 |       525413 |xxxxxxxxxxxxx |xxxxxxxxxxxxx |xxxxxxxxxxxxx |      1050727 |      1050727 |      1050727 |      1050727 |xxxxxxxxxxxxx |xxxxxxxxxxxxx |xxxxxxxxxxxxx |      2101355 |      2101355 |      2101355 |      2101355 |xxxxxxxxxxxxx |xxxxxxxxxxxxx |xxxxxxxxxxxxx |      4202611 |      4202611 |      4202611 |      4202611 |
bpred_2lev.ras_hits.PP               xxxxxxxxxxxxx |xxxxxxxxxxxxx |xxxxxxxxxxxxx |           79 |           79 |           79 |           79 |xxxxxxxxxxxxx |xxxxxxxxxxxxx |xxxxxxxxxxxxx |           87 |           87 |           87 |           87 |xxxxxxxxxxxxx |xxxxxxxxxxxxx |xxxxxxxxxxxxx |          103 |          103 |          103 |          103 |xxxxxxxxxxxxx |xxxxxxxxxxxxx |xxxxxxxxxxxxx |          135 |          135 |          135 |          135 |xxxxxxxxxxxxx |xxxxxxxxxxxxx |xxxxxxxxxxxxx |          199 |          199 |          199 |          199 |xxxxxxxxxxxxx |xxxxxxxxxxxxx |xxxxxxxxxxxxx |          327 |          327 |          327 |          327 |xxxxxxxxxxxxx |xxxxxxxxxxxxx |xxxxxxxxxxxxx |          583 |          583 |          583 |          583 |xxxxxxxxxxxxx |xxxxxxxxxxxxx |xxxxxxxxxxxxx |       525413 |       525413 |       525413 |       525413 |xxxxxxxxxxxxx |xxxxxxxxxxxxx |xxxxxxxxxxxxx |      1050727 |      1050727 |      1050727 |      1050727 |xxxxxxxxxxxxx |xxxxxxxxxxxxx |xxxxxxxxxxxxx |      2101355 |      2101355 |      2101355 |      2101355 |xxxxxxxxxxxxx |xxxxxxxxxxxxx |xxxxxxxxxxxxx |      4202611 |      4202611 |      4202611 |      4202611 |
bpred_2lev.ras_rate.PP               xxxxxxxxxxxxx |xxxxxxxxxxxxx |xxxxxxxxxxxxx |       0.9875 |       0.9875 |       0.9875 |       0.9875 |xxxxxxxxxxxxx |xxxxxxxxxxxxx |xxxxxxxxxxxxx |       0.9886 |       0.9886 |       0.9886 |       0.9886 |xxxxxxxxxxxxx |xxxxxxxxxxxxx |xxxxxxxxxxxxx |       0.9904 |       0.9904 |       0.9904 |       0.9904 |xxxxxxxxxxxxx |xxxxxxxxxxxxx |xxxxxxxxxxxxx |       0.9926 |       0.9926 |       0.9926 |       0.9926 |xxxxxxxxxxxxx |xxxxxxxxxxxxx |xxxxxxxxxxxxx |       0.9950 |       0.9950 |       0.9950 |       0.9950 |xxxxxxxxxxxxx |xxxxxxxxxxxxx |xxxxxxxxxxxxx |       0.9970 |       0.9970 |       0.9970 |       0.9970 |xxxxxxxxxxxxx |xxxxxxxxxxxxx |xxxxxxxxxxxxx |       0.9983 |       0.9983 |       0.9983 |       0.9983 |xxxxxxxxxxxxx |xxxxxxxxxxxxx |xxxxxxxxxxxxx |       1.0000 |       1.0000 |       1.0000 |       1.0000 |xxxxxxxxxxxxx |xxxxxxxxxxxxx |xxxxxxxxxxxxx |       1.0000 |       1.0000 |       1.0000 |       1.0000 |xxxxxxxxxxxxx |xxxxxxxxxxxxx |xxxxxxxxxxxxx |       1.0000 |       1.0000 |       1.0000 |       1.0000 |xxxxxxxxxxxxx |xxxxxxxxxxxxx |xxxxxxxxxxxxx |       1.0000 |       1.0000 |       1.0000 |       1.0000 |

Command list: 
	sslittle-na-sstrix-gcc -Wall -O3 -funroll-loops -finline-functions  -DRANDOM_SIZE=4096 -DOFFSET=3 -DSORT=multi_mergesort sorts/multi_mergesort1154531684.c simpleMain.c -o multi_mergesort1218025854
	sim-cache -cache:dl1 dl1:256:32:1:l -cache:dl2 dl2:131072:32:1:l -cache:il1 il1:256:32:1:l -cache:il2 dl2 multi_mergesort1218025854
	sim-cache -cache:dl1 dl1:256:32:1:l -cache:dl2 dl2:65536:32:1:l -cache:il1 il1:256:32:1:l -cache:il2 dl2 multi_mergesort1218025854
	sim-cache -cache:dl1 dl1:1:32:256:l -cache:dl2 dl2:1:32:131072:l -cache:il1 il1:1:32:256:l -cache:il2 dl2 multi_mergesort1218025854
	sim-cache -cache:dl1 dl1:1:32:256:l -cache:dl2 dl2:1:32:65536:l -cache:il1 il1:1:32:256:l -cache:il2 dl2 multi_mergesort1218025854
	sim-bpred -bpred bimod -bpred:bimod 512 multi_mergesort1218025854
	sim-bpred -bpred bimod -bpred:bimod 1024 multi_mergesort1218025854
	sim-bpred -bpred bimod -bpred:bimod 2048 multi_mergesort1218025854
	sim-bpred -bpred 2lev -bpred:2lev 1 512 10 1 multi_mergesort1218025854
	sim-bpred -bpred 2lev -bpred:2lev 1 1024 10 1 multi_mergesort1218025854
	sim-bpred -bpred 2lev -bpred:2lev 1 2048 10 1 multi_mergesort1218025854
	sim-bpred -bpred 2lev -bpred:2lev 1 4096 10 1 multi_mergesort1218025854
	sslittle-na-sstrix-gcc -Wall -O3 -funroll-loops -finline-functions  -DRANDOM_SIZE=8192 -DOFFSET=3 -DSORT=multi_mergesort sorts/multi_mergesort1154531684.c simpleMain.c -o multi_mergesort1218025854
	sim-cache -cache:dl1 dl1:256:32:1:l -cache:dl2 dl2:131072:32:1:l -cache:il1 il1:256:32:1:l -cache:il2 dl2 multi_mergesort1218025854
	sim-cache -cache:dl1 dl1:256:32:1:l -cache:dl2 dl2:65536:32:1:l -cache:il1 il1:256:32:1:l -cache:il2 dl2 multi_mergesort1218025854
	sim-cache -cache:dl1 dl1:1:32:256:l -cache:dl2 dl2:1:32:131072:l -cache:il1 il1:1:32:256:l -cache:il2 dl2 multi_mergesort1218025854
	sim-cache -cache:dl1 dl1:1:32:256:l -cache:dl2 dl2:1:32:65536:l -cache:il1 il1:1:32:256:l -cache:il2 dl2 multi_mergesort1218025854
	sim-bpred -bpred bimod -bpred:bimod 512 multi_mergesort1218025854
	sim-bpred -bpred bimod -bpred:bimod 1024 multi_mergesort1218025854
	sim-bpred -bpred bimod -bpred:bimod 2048 multi_mergesort1218025854
	sim-bpred -bpred 2lev -bpred:2lev 1 512 10 1 multi_mergesort1218025854
	sim-bpred -bpred 2lev -bpred:2lev 1 1024 10 1 multi_mergesort1218025854
	sim-bpred -bpred 2lev -bpred:2lev 1 2048 10 1 multi_mergesort1218025854
	sim-bpred -bpred 2lev -bpred:2lev 1 4096 10 1 multi_mergesort1218025854
	sslittle-na-sstrix-gcc -Wall -O3 -funroll-loops -finline-functions  -DRANDOM_SIZE=16384 -DOFFSET=3 -DSORT=multi_mergesort sorts/multi_mergesort1154531684.c simpleMain.c -o multi_mergesort1218025854
	sim-cache -cache:dl1 dl1:256:32:1:l -cache:dl2 dl2:131072:32:1:l -cache:il1 il1:256:32:1:l -cache:il2 dl2 multi_mergesort1218025854
	sim-cache -cache:dl1 dl1:256:32:1:l -cache:dl2 dl2:65536:32:1:l -cache:il1 il1:256:32:1:l -cache:il2 dl2 multi_mergesort1218025854
	sim-cache -cache:dl1 dl1:1:32:256:l -cache:dl2 dl2:1:32:131072:l -cache:il1 il1:1:32:256:l -cache:il2 dl2 multi_mergesort1218025854
	sim-cache -cache:dl1 dl1:1:32:256:l -cache:dl2 dl2:1:32:65536:l -cache:il1 il1:1:32:256:l -cache:il2 dl2 multi_mergesort1218025854
	sim-bpred -bpred bimod -bpred:bimod 512 multi_mergesort1218025854
	sim-bpred -bpred bimod -bpred:bimod 1024 multi_mergesort1218025854
	sim-bpred -bpred bimod -bpred:bimod 2048 multi_mergesort1218025854
	sim-bpred -bpred 2lev -bpred:2lev 1 512 10 1 multi_mergesort1218025854
	sim-bpred -bpred 2lev -bpred:2lev 1 1024 10 1 multi_mergesort1218025854
	sim-bpred -bpred 2lev -bpred:2lev 1 2048 10 1 multi_mergesort1218025854
	sim-bpred -bpred 2lev -bpred:2lev 1 4096 10 1 multi_mergesort1218025854
	sslittle-na-sstrix-gcc -Wall -O3 -funroll-loops -finline-functions  -DRANDOM_SIZE=32768 -DOFFSET=3 -DSORT=multi_mergesort sorts/multi_mergesort1154531684.c simpleMain.c -o multi_mergesort1218025854
	sim-cache -cache:dl1 dl1:256:32:1:l -cache:dl2 dl2:131072:32:1:l -cache:il1 il1:256:32:1:l -cache:il2 dl2 multi_mergesort1218025854
	sim-cache -cache:dl1 dl1:256:32:1:l -cache:dl2 dl2:65536:32:1:l -cache:il1 il1:256:32:1:l -cache:il2 dl2 multi_mergesort1218025854
	sim-cache -cache:dl1 dl1:1:32:256:l -cache:dl2 dl2:1:32:131072:l -cache:il1 il1:1:32:256:l -cache:il2 dl2 multi_mergesort1218025854
	sim-cache -cache:dl1 dl1:1:32:256:l -cache:dl2 dl2:1:32:65536:l -cache:il1 il1:1:32:256:l -cache:il2 dl2 multi_mergesort1218025854
	sim-bpred -bpred bimod -bpred:bimod 512 multi_mergesort1218025854
	sim-bpred -bpred bimod -bpred:bimod 1024 multi_mergesort1218025854
	sim-bpred -bpred bimod -bpred:bimod 2048 multi_mergesort1218025854
	sim-bpred -bpred 2lev -bpred:2lev 1 512 10 1 multi_mergesort1218025854
	sim-bpred -bpred 2lev -bpred:2lev 1 1024 10 1 multi_mergesort1218025854
	sim-bpred -bpred 2lev -bpred:2lev 1 2048 10 1 multi_mergesort1218025854
	sim-bpred -bpred 2lev -bpred:2lev 1 4096 10 1 multi_mergesort1218025854
	sslittle-na-sstrix-gcc -Wall -O3 -funroll-loops -finline-functions  -DRANDOM_SIZE=65536 -DOFFSET=3 -DSORT=multi_mergesort sorts/multi_mergesort1154531684.c simpleMain.c -o multi_mergesort1218025854
	sim-cache -cache:dl1 dl1:256:32:1:l -cache:dl2 dl2:131072:32:1:l -cache:il1 il1:256:32:1:l -cache:il2 dl2 multi_mergesort1218025854
	sim-cache -cache:dl1 dl1:256:32:1:l -cache:dl2 dl2:65536:32:1:l -cache:il1 il1:256:32:1:l -cache:il2 dl2 multi_mergesort1218025854
	sim-cache -cache:dl1 dl1:1:32:256:l -cache:dl2 dl2:1:32:131072:l -cache:il1 il1:1:32:256:l -cache:il2 dl2 multi_mergesort1218025854
	sim-cache -cache:dl1 dl1:1:32:256:l -cache:dl2 dl2:1:32:65536:l -cache:il1 il1:1:32:256:l -cache:il2 dl2 multi_mergesort1218025854
	sim-bpred -bpred bimod -bpred:bimod 512 multi_mergesort1218025854
	sim-bpred -bpred bimod -bpred:bimod 1024 multi_mergesort1218025854
	sim-bpred -bpred bimod -bpred:bimod 2048 multi_mergesort1218025854
	sim-bpred -bpred 2lev -bpred:2lev 1 512 10 1 multi_mergesort1218025854
	sim-bpred -bpred 2lev -bpred:2lev 1 1024 10 1 multi_mergesort1218025854
	sim-bpred -bpred 2lev -bpred:2lev 1 2048 10 1 multi_mergesort1218025854
	sim-bpred -bpred 2lev -bpred:2lev 1 4096 10 1 multi_mergesort1218025854
	sslittle-na-sstrix-gcc -Wall -O3 -funroll-loops -finline-functions  -DRANDOM_SIZE=131072 -DOFFSET=3 -DSORT=multi_mergesort sorts/multi_mergesort1154531684.c simpleMain.c -o multi_mergesort1218025854
	sim-cache -cache:dl1 dl1:256:32:1:l -cache:dl2 dl2:131072:32:1:l -cache:il1 il1:256:32:1:l -cache:il2 dl2 multi_mergesort1218025854
	sim-cache -cache:dl1 dl1:256:32:1:l -cache:dl2 dl2:65536:32:1:l -cache:il1 il1:256:32:1:l -cache:il2 dl2 multi_mergesort1218025854
	sim-cache -cache:dl1 dl1:1:32:256:l -cache:dl2 dl2:1:32:131072:l -cache:il1 il1:1:32:256:l -cache:il2 dl2 multi_mergesort1218025854
	sim-cache -cache:dl1 dl1:1:32:256:l -cache:dl2 dl2:1:32:65536:l -cache:il1 il1:1:32:256:l -cache:il2 dl2 multi_mergesort1218025854
	sim-bpred -bpred bimod -bpred:bimod 512 multi_mergesort1218025854
	sim-bpred -bpred bimod -bpred:bimod 1024 multi_mergesort1218025854
	sim-bpred -bpred bimod -bpred:bimod 2048 multi_mergesort1218025854
	sim-bpred -bpred 2lev -bpred:2lev 1 512 10 1 multi_mergesort1218025854
	sim-bpred -bpred 2lev -bpred:2lev 1 1024 10 1 multi_mergesort1218025854
	sim-bpred -bpred 2lev -bpred:2lev 1 2048 10 1 multi_mergesort1218025854
	sim-bpred -bpred 2lev -bpred:2lev 1 4096 10 1 multi_mergesort1218025854
	sslittle-na-sstrix-gcc -Wall -O3 -funroll-loops -finline-functions  -DRANDOM_SIZE=262144 -DOFFSET=3 -DSORT=multi_mergesort sorts/multi_mergesort1154531684.c simpleMain.c -o multi_mergesort1218025854
	sim-cache -cache:dl1 dl1:256:32:1:l -cache:dl2 dl2:131072:32:1:l -cache:il1 il1:256:32:1:l -cache:il2 dl2 multi_mergesort1218025854
	sim-cache -cache:dl1 dl1:256:32:1:l -cache:dl2 dl2:65536:32:1:l -cache:il1 il1:256:32:1:l -cache:il2 dl2 multi_mergesort1218025854
	sim-cache -cache:dl1 dl1:1:32:256:l -cache:dl2 dl2:1:32:131072:l -cache:il1 il1:1:32:256:l -cache:il2 dl2 multi_mergesort1218025854
	sim-cache -cache:dl1 dl1:1:32:256:l -cache:dl2 dl2:1:32:65536:l -cache:il1 il1:1:32:256:l -cache:il2 dl2 multi_mergesort1218025854
	sim-bpred -bpred bimod -bpred:bimod 512 multi_mergesort1218025854
	sim-bpred -bpred bimod -bpred:bimod 1024 multi_mergesort1218025854
	sim-bpred -bpred bimod -bpred:bimod 2048 multi_mergesort1218025854
	sim-bpred -bpred 2lev -bpred:2lev 1 512 10 1 multi_mergesort1218025854
	sim-bpred -bpred 2lev -bpred:2lev 1 1024 10 1 multi_mergesort1218025854
	sim-bpred -bpred 2lev -bpred:2lev 1 2048 10 1 multi_mergesort1218025854
	sim-bpred -bpred 2lev -bpred:2lev 1 4096 10 1 multi_mergesort1218025854
	sslittle-na-sstrix-gcc -Wall -O3 -funroll-loops -finline-functions  -DRANDOM_SIZE=524288 -DOFFSET=3 -DSORT=multi_mergesort sorts/multi_mergesort1154531684.c simpleMain.c -o multi_mergesort1218025854
	sim-cache -cache:dl1 dl1:256:32:1:l -cache:dl2 dl2:131072:32:1:l -cache:il1 il1:256:32:1:l -cache:il2 dl2 multi_mergesort1218025854
	sim-cache -cache:dl1 dl1:256:32:1:l -cache:dl2 dl2:65536:32:1:l -cache:il1 il1:256:32:1:l -cache:il2 dl2 multi_mergesort1218025854
	sim-cache -cache:dl1 dl1:1:32:256:l -cache:dl2 dl2:1:32:131072:l -cache:il1 il1:1:32:256:l -cache:il2 dl2 multi_mergesort1218025854
	sim-cache -cache:dl1 dl1:1:32:256:l -cache:dl2 dl2:1:32:65536:l -cache:il1 il1:1:32:256:l -cache:il2 dl2 multi_mergesort1218025854
	sim-bpred -bpred bimod -bpred:bimod 512 multi_mergesort1218025854
	sim-bpred -bpred bimod -bpred:bimod 1024 multi_mergesort1218025854
	sim-bpred -bpred bimod -bpred:bimod 2048 multi_mergesort1218025854
	sim-bpred -bpred 2lev -bpred:2lev 1 512 10 1 multi_mergesort1218025854
	sim-bpred -bpred 2lev -bpred:2lev 1 1024 10 1 multi_mergesort1218025854
	sim-bpred -bpred 2lev -bpred:2lev 1 2048 10 1 multi_mergesort1218025854
	sim-bpred -bpred 2lev -bpred:2lev 1 4096 10 1 multi_mergesort1218025854
	sslittle-na-sstrix-gcc -Wall -O3 -funroll-loops -finline-functions  -DRANDOM_SIZE=1048576 -DOFFSET=3 -DSORT=multi_mergesort sorts/multi_mergesort1154531684.c simpleMain.c -o multi_mergesort1218025854
	sim-cache -cache:dl1 dl1:256:32:1:l -cache:dl2 dl2:131072:32:1:l -cache:il1 il1:256:32:1:l -cache:il2 dl2 multi_mergesort1218025854
	sim-cache -cache:dl1 dl1:256:32:1:l -cache:dl2 dl2:65536:32:1:l -cache:il1 il1:256:32:1:l -cache:il2 dl2 multi_mergesort1218025854
	sim-cache -cache:dl1 dl1:1:32:256:l -cache:dl2 dl2:1:32:131072:l -cache:il1 il1:1:32:256:l -cache:il2 dl2 multi_mergesort1218025854
	sim-cache -cache:dl1 dl1:1:32:256:l -cache:dl2 dl2:1:32:65536:l -cache:il1 il1:1:32:256:l -cache:il2 dl2 multi_mergesort1218025854
	sim-bpred -bpred bimod -bpred:bimod 512 multi_mergesort1218025854
	sim-bpred -bpred bimod -bpred:bimod 1024 multi_mergesort1218025854
	sim-bpred -bpred bimod -bpred:bimod 2048 multi_mergesort1218025854
	sim-bpred -bpred 2lev -bpred:2lev 1 512 10 1 multi_mergesort1218025854
	sim-bpred -bpred 2lev -bpred:2lev 1 1024 10 1 multi_mergesort1218025854
	sim-bpred -bpred 2lev -bpred:2lev 1 2048 10 1 multi_mergesort1218025854
	sim-bpred -bpred 2lev -bpred:2lev 1 4096 10 1 multi_mergesort1218025854
	sslittle-na-sstrix-gcc -Wall -O3 -funroll-loops -finline-functions  -DRANDOM_SIZE=2097152 -DOFFSET=3 -DSORT=multi_mergesort sorts/multi_mergesort1154531684.c simpleMain.c -o multi_mergesort1218025854
	sim-cache -cache:dl1 dl1:256:32:1:l -cache:dl2 dl2:131072:32:1:l -cache:il1 il1:256:32:1:l -cache:il2 dl2 multi_mergesort1218025854
	sim-cache -cache:dl1 dl1:256:32:1:l -cache:dl2 dl2:65536:32:1:l -cache:il1 il1:256:32:1:l -cache:il2 dl2 multi_mergesort1218025854
	sim-cache -cache:dl1 dl1:1:32:256:l -cache:dl2 dl2:1:32:131072:l -cache:il1 il1:1:32:256:l -cache:il2 dl2 multi_mergesort1218025854
	sim-cache -cache:dl1 dl1:1:32:256:l -cache:dl2 dl2:1:32:65536:l -cache:il1 il1:1:32:256:l -cache:il2 dl2 multi_mergesort1218025854
	sim-bpred -bpred bimod -bpred:bimod 512 multi_mergesort1218025854
	sim-bpred -bpred bimod -bpred:bimod 1024 multi_mergesort1218025854
	sim-bpred -bpred bimod -bpred:bimod 2048 multi_mergesort1218025854
	sim-bpred -bpred 2lev -bpred:2lev 1 512 10 1 multi_mergesort1218025854
	sim-bpred -bpred 2lev -bpred:2lev 1 1024 10 1 multi_mergesort1218025854
	sim-bpred -bpred 2lev -bpred:2lev 1 2048 10 1 multi_mergesort1218025854
	sim-bpred -bpred 2lev -bpred:2lev 1 4096 10 1 multi_mergesort1218025854
	sslittle-na-sstrix-gcc -Wall -O3 -funroll-loops -finline-functions  -DRANDOM_SIZE=4194304 -DOFFSET=3 -DSORT=multi_mergesort sorts/multi_mergesort1154531684.c simpleMain.c -o multi_mergesort1218025854
	sim-cache -cache:dl1 dl1:256:32:1:l -cache:dl2 dl2:131072:32:1:l -cache:il1 il1:256:32:1:l -cache:il2 dl2 multi_mergesort1218025854
	sim-cache -cache:dl1 dl1:256:32:1:l -cache:dl2 dl2:65536:32:1:l -cache:il1 il1:256:32:1:l -cache:il2 dl2 multi_mergesort1218025854
	sim-cache -cache:dl1 dl1:1:32:256:l -cache:dl2 dl2:1:32:131072:l -cache:il1 il1:1:32:256:l -cache:il2 dl2 multi_mergesort1218025854
	sim-cache -cache:dl1 dl1:1:32:256:l -cache:dl2 dl2:1:32:65536:l -cache:il1 il1:1:32:256:l -cache:il2 dl2 multi_mergesort1218025854
	sim-bpred -bpred bimod -bpred:bimod 512 multi_mergesort1218025854
	sim-bpred -bpred bimod -bpred:bimod 1024 multi_mergesort1218025854
	sim-bpred -bpred bimod -bpred:bimod 2048 multi_mergesort1218025854
	sim-bpred -bpred 2lev -bpred:2lev 1 512 10 1 multi_mergesort1218025854
	sim-bpred -bpred 2lev -bpred:2lev 1 1024 10 1 multi_mergesort1218025854
	sim-bpred -bpred 2lev -bpred:2lev 1 2048 10 1 multi_mergesort1218025854
	sim-bpred -bpred 2lev -bpred:2lev 1 4096 10 1 multi_mergesort1218025854
