Thu Jun 23 03:21:14 2005
Run as: "./do_simple -c random.org0 -o 0 multi_quicksort_seq"
-------------------------------------------------------------------------------------------------
sim-cache                                     4096 |         4096 |         4096 |         4096 |         8192 |         8192 |         8192 |         8192 |        16384 |        16384 |        16384 |        16384 |        32768 |        32768 |        32768 |        32768 |        65536 |        65536 |        65536 |        65536 |       131072 |       131072 |       131072 |       131072 |       262144 |       262144 |       262144 |       262144 |       524288 |       524288 |       524288 |       524288 |      1048576 |      1048576 |      1048576 |      1048576 |      2097152 |      2097152 |      2097152 |      2097152 |      4194304 |      4194304 |      4194304 |      4194304 |
-cache:dl1 dl1:256:32:1:l -cache:dl2 dl2:131072:32:1:l -cache:il1 il1:256:32:1:l -cache:il2 dl2
-cache:dl1 dl1:256:32:1:l -cache:dl2 dl2:65536:32:1:l -cache:il1 il1:256:32:1:l -cache:il2 dl2
-cache:dl1 dl1:1:32:256:l -cache:dl2 dl2:1:32:131072:l -cache:il1 il1:1:32:256:l -cache:il2 dl2
-cache:dl1 dl1:1:32:256:l -cache:dl2 dl2:1:32:65536:l -cache:il1 il1:1:32:256:l -cache:il2 dl2
-------------------------------------------------------------------------------------------------
sim_num_insn                                462894 |       462894 |       462894 |       462894 |      1013413 |      1013413 |      1013413 |      1013413 |      2151757 |      2151757 |      2151757 |      2151757 |      4641784 |      4641784 |      4641784 |      4641784 |      9952909 |      9952909 |      9952909 |      9952909 |     20662287 |     20662287 |     20662287 |     20662287 |     44824180 |     44824180 |     44824180 |     44824180 |     93705063 |     93705063 |     93705063 |     93705063 |    199532576 |    199532576 |    199532576 |    199532576 |    580575816 |    580575816 |    580575816 |    580575816 |   1350406091 |   1350406091 |   1350406091 |   1350406091 |
sim_num_refs                                122565 |       122565 |       122565 |       122565 |       261709 |       261709 |       261709 |       261709 |       551806 |       551806 |       551806 |       551806 |      1173577 |      1173577 |      1173577 |      1173577 |      2499068 |      2499068 |      2499068 |      2499068 |      5205639 |      5205639 |      5205639 |      5205639 |     11118765 |     11118765 |     11118765 |     11118765 |     23258039 |     23258039 |     23258039 |     23258039 |     49076507 |     49076507 |     49076507 |     49076507 |    135523327 |    135523327 |    135523327 |    135523327 |    298912170 |    298912170 |    298912170 |    298912170 |
sim_elapsed_time                                 1 |            1 |            7 |            3 |            1 |            1 |            9 |            5 |            1 |            1 |           14 |            8 |            1 |            1 |           25 |           13 |            3 |            3 |           45 |           23 |            5 |            5 |           84 |           43 |           12 |           11 |          155 |           73 |           24 |           24 |          267 |          104 |           50 |           50 |          372 |          133 |          147 |          147 |          474 |          235 |          335 |          336 |          676 |          436 |
sim_inst_rate                          462894.0000 |  462894.0000 |   66127.7143 |  154298.0000 | 1013413.0000 | 1013413.0000 |  112601.4444 |  202682.6000 | 2151757.0000 | 2151757.0000 |  153696.9286 |  268969.6250 | 4641784.0000 | 4641784.0000 |  185671.3600 |  357060.3077 | 3317636.3333 | 3317636.3333 |  221175.7556 |  432735.1739 | 4132457.4000 | 4132457.4000 |  245979.6071 |  480518.3023 | 3735348.3333 | 4074925.4545 |  289188.2581 |  614029.8630 | 3904377.6250 | 3904377.6250 |  350955.2921 |  901010.2212 | 3990651.5200 | 3990651.5200 |  536377.8925 | 1500244.9323 | 3949495.3469 | 3949495.3469 | 1224843.4937 | 2470535.3872 | 4031062.9582 | 4019065.7470 | 1997642.1464 | 3097261.6766 |
il1.accesses                                462894 |       462894 |       462894 |       462894 |      1013413 |      1013413 |      1013413 |      1013413 |      2151757 |      2151757 |      2151757 |      2151757 |      4641784 |      4641784 |      4641784 |      4641784 |      9952909 |      9952909 |      9952909 |      9952909 |     20662287 |     20662287 |     20662287 |     20662287 |     44824180 |     44824180 |     44824180 |     44824180 |     93705063 |     93705063 |     93705063 |     93705063 |    199532576 |    199532576 |    199532576 |    199532576 |    580575816 |    580575816 |    580575816 |    580575816 |   1350406091 |   1350406091 |   1350406091 |   1350406091 |
il1.hits                                    462433 |       462433 |       462464 |       462464 |      1012952 |      1012952 |      1012983 |      1012983 |      2151281 |      2151281 |      2151320 |      2151320 |      4641318 |      4641318 |      4641357 |      4641357 |      9952435 |      9952435 |      9952474 |      9952474 |     20661818 |     20661818 |     20661847 |     20661847 |     44823711 |     44823711 |     44823740 |     44823740 |     93704598 |     93704598 |     93704627 |     93704627 |    199532107 |    199532107 |    199532136 |    199532136 |    580575078 |    580575078 |    580575124 |    580575124 |   1350405349 |   1350405349 |   1350405395 |   1350405395 |
il1.misses                                     461 |          461 |          430 |          430 |          461 |          461 |          430 |          430 |          476 |          476 |          437 |          437 |          466 |          466 |          427 |          427 |          474 |          474 |          435 |          435 |          469 |          469 |          440 |          440 |          469 |          469 |          440 |          440 |          465 |          465 |          436 |          436 |          469 |          469 |          440 |          440 |          738 |          738 |          692 |          692 |          742 |          742 |          696 |          696 |
il1.replacements                               220 |          220 |          174 |          174 |          218 |          218 |          174 |          174 |          234 |          234 |          181 |          181 |          225 |          225 |          171 |          171 |          232 |          232 |          179 |          179 |          224 |          224 |          184 |          184 |          224 |          224 |          184 |          184 |          220 |          220 |          180 |          180 |          224 |          224 |          184 |          184 |          483 |          483 |          436 |          436 |          487 |          487 |          440 |          440 |
il1.writebacks                                   0 |            0 |            0 |            0 |            0 |            0 |            0 |            0 |            0 |            0 |            0 |            0 |            0 |            0 |            0 |            0 |            0 |            0 |            0 |            0 |            0 |            0 |            0 |            0 |            0 |            0 |            0 |            0 |            0 |            0 |            0 |            0 |            0 |            0 |            0 |            0 |            0 |            0 |            0 |            0 |            0 |            0 |            0 |            0 |
il1.invalidations                                0 |            0 |            0 |            0 |            0 |            0 |            0 |            0 |            0 |            0 |            0 |            0 |            0 |            0 |            0 |            0 |            0 |            0 |            0 |            0 |            0 |            0 |            0 |            0 |            0 |            0 |            0 |            0 |            0 |            0 |            0 |            0 |            0 |            0 |            0 |            0 |            0 |            0 |            0 |            0 |            0 |            0 |            0 |            0 |
il1.miss_rate                               0.0010 |       0.0010 |       0.0009 |       0.0009 |       0.0005 |       0.0005 |       0.0004 |       0.0004 |       0.0002 |       0.0002 |       0.0002 |       0.0002 |       0.0001 |       0.0001 |       0.0001 |       0.0001 |       0.0000 |       0.0000 |       0.0000 |       0.0000 |       0.0000 |       0.0000 |       0.0000 |       0.0000 |       0.0000 |       0.0000 |       0.0000 |       0.0000 |       0.0000 |       0.0000 |       0.0000 |       0.0000 |       0.0000 |       0.0000 |       0.0000 |       0.0000 |       0.0000 |       0.0000 |       0.0000 |       0.0000 |       0.0000 |       0.0000 |       0.0000 |       0.0000 |
il1.repl_rate                               0.0005 |       0.0005 |       0.0004 |       0.0004 |       0.0002 |       0.0002 |       0.0002 |       0.0002 |       0.0001 |       0.0001 |       0.0001 |       0.0001 |       0.0000 |       0.0000 |       0.0000 |       0.0000 |       0.0000 |       0.0000 |       0.0000 |       0.0000 |       0.0000 |       0.0000 |       0.0000 |       0.0000 |       0.0000 |       0.0000 |       0.0000 |       0.0000 |       0.0000 |       0.0000 |       0.0000 |       0.0000 |       0.0000 |       0.0000 |       0.0000 |       0.0000 |       0.0000 |       0.0000 |       0.0000 |       0.0000 |       0.0000 |       0.0000 |       0.0000 |       0.0000 |
il1.wb_rate                                 0.0000 |       0.0000 |       0.0000 |       0.0000 |       0.0000 |       0.0000 |       0.0000 |       0.0000 |       0.0000 |       0.0000 |       0.0000 |       0.0000 |       0.0000 |       0.0000 |       0.0000 |       0.0000 |       0.0000 |       0.0000 |       0.0000 |       0.0000 |       0.0000 |       0.0000 |       0.0000 |       0.0000 |       0.0000 |       0.0000 |       0.0000 |       0.0000 |       0.0000 |       0.0000 |       0.0000 |       0.0000 |       0.0000 |       0.0000 |       0.0000 |       0.0000 |       0.0000 |       0.0000 |       0.0000 |       0.0000 |       0.0000 |       0.0000 |       0.0000 |       0.0000 |
il1.inv_rate                                0.0000 |       0.0000 |       0.0000 |       0.0000 |       0.0000 |       0.0000 |       0.0000 |       0.0000 |       0.0000 |       0.0000 |       0.0000 |       0.0000 |       0.0000 |       0.0000 |       0.0000 |       0.0000 |       0.0000 |       0.0000 |       0.0000 |       0.0000 |       0.0000 |       0.0000 |       0.0000 |       0.0000 |       0.0000 |       0.0000 |       0.0000 |       0.0000 |       0.0000 |       0.0000 |       0.0000 |       0.0000 |       0.0000 |       0.0000 |       0.0000 |       0.0000 |       0.0000 |       0.0000 |       0.0000 |       0.0000 |       0.0000 |       0.0000 |       0.0000 |       0.0000 |
dl1.accesses                                139031 |       139031 |       139031 |       139031 |       294559 |       294559 |       294559 |       294559 |       617424 |       617424 |       617424 |       617424 |      1304731 |      1304731 |      1304731 |      1304731 |      2761294 |      2761294 |      2761294 |      2761294 |      5730009 |      5730009 |      5730009 |      5730009 |     12167423 |     12167423 |     12167423 |     12167423 |     25355273 |     25355273 |     25355273 |     25355273 |     53270893 |     53270893 |     53270893 |     53270893 |    143912018 |    143912018 |    143912018 |    143912018 |    315689469 |    315689469 |    315689469 |    315689469 |
dl1.hits                                    136636 |       136636 |       136630 |       136630 |       288973 |       288973 |       289086 |       289086 |       605073 |       605073 |       605156 |       605156 |      1274421 |      1274421 |      1274669 |      1274669 |      2690359 |      2690359 |      2690763 |      2690763 |      5579625 |      5579625 |      5581183 |      5581183 |     11802148 |     11802148 |     11804839 |     11804839 |     24562116 |     24562116 |     24569652 |     24569652 |     51477132 |     51477132 |     51495609 |     51495609 |    135316659 |    135316659 |    140110093 |    140110093 |    303668248 |    303668248 |    307826286 |    307826286 |
dl1.misses                                    2395 |         2395 |         2401 |         2401 |         5586 |         5586 |         5473 |         5473 |        12351 |        12351 |        12268 |        12268 |        30310 |        30310 |        30062 |        30062 |        70935 |        70935 |        70531 |        70531 |       150384 |       150384 |       148826 |       148826 |       365275 |       365275 |       362584 |       362584 |       793157 |       793157 |       785621 |       785621 |      1793761 |      1793761 |      1775284 |      1775284 |      8595359 |      8595359 |      3801925 |      3801925 |     12021221 |     12021221 |      7863183 |      7863183 |
dl1.replacements                              2139 |         2139 |         2145 |         2145 |         5330 |         5330 |         5217 |         5217 |        12095 |        12095 |        12012 |        12012 |        30054 |        30054 |        29806 |        29806 |        70679 |        70679 |        70275 |        70275 |       150128 |       150128 |       148570 |       148570 |       365019 |       365019 |       362328 |       362328 |       792901 |       792901 |       785365 |       785365 |      1793505 |      1793505 |      1775028 |      1775028 |      8595103 |      8595103 |      3801669 |      3801669 |     12020965 |     12020965 |      7862927 |      7862927 |
dl1.writebacks                                2001 |         2001 |         2027 |         2027 |         4756 |         4756 |         4706 |         4706 |        11220 |        11220 |        11240 |        11240 |        27397 |        27397 |        27375 |        27375 |        62058 |        62058 |        62263 |        62263 |       138967 |       138967 |       138902 |       138902 |       323239 |       323239 |       323956 |       323956 |       708496 |       708496 |       708873 |       708873 |      1580795 |      1580795 |      1580000 |      1580000 |      5418635 |      5418635 |      3072054 |      3072054 |     10013545 |     10013545 |      6323479 |      6323479 |
dl1.invalidations                                0 |            0 |            0 |            0 |            0 |            0 |            0 |            0 |            0 |            0 |            0 |            0 |            0 |            0 |            0 |            0 |            0 |            0 |            0 |            0 |            0 |            0 |            0 |            0 |            0 |            0 |            0 |            0 |            0 |            0 |            0 |            0 |            0 |            0 |            0 |            0 |            0 |            0 |            0 |            0 |            0 |            0 |            0 |            0 |
dl1.miss_rate                               0.0172 |       0.0172 |       0.0173 |       0.0173 |       0.0190 |       0.0190 |       0.0186 |       0.0186 |       0.0200 |       0.0200 |       0.0199 |       0.0199 |       0.0232 |       0.0232 |       0.0230 |       0.0230 |       0.0257 |       0.0257 |       0.0255 |       0.0255 |       0.0262 |       0.0262 |       0.0260 |       0.0260 |       0.0300 |       0.0300 |       0.0298 |       0.0298 |       0.0313 |       0.0313 |       0.0310 |       0.0310 |       0.0337 |       0.0337 |       0.0333 |       0.0333 |       0.0597 |       0.0597 |       0.0264 |       0.0264 |       0.0381 |       0.0381 |       0.0249 |       0.0249 |
dl1.repl_rate                               0.0154 |       0.0154 |       0.0154 |       0.0154 |       0.0181 |       0.0181 |       0.0177 |       0.0177 |       0.0196 |       0.0196 |       0.0195 |       0.0195 |       0.0230 |       0.0230 |       0.0228 |       0.0228 |       0.0256 |       0.0256 |       0.0255 |       0.0255 |       0.0262 |       0.0262 |       0.0259 |       0.0259 |       0.0300 |       0.0300 |       0.0298 |       0.0298 |       0.0313 |       0.0313 |       0.0310 |       0.0310 |       0.0337 |       0.0337 |       0.0333 |       0.0333 |       0.0597 |       0.0597 |       0.0264 |       0.0264 |       0.0381 |       0.0381 |       0.0249 |       0.0249 |
dl1.wb_rate                                 0.0144 |       0.0144 |       0.0146 |       0.0146 |       0.0161 |       0.0161 |       0.0160 |       0.0160 |       0.0182 |       0.0182 |       0.0182 |       0.0182 |       0.0210 |       0.0210 |       0.0210 |       0.0210 |       0.0225 |       0.0225 |       0.0225 |       0.0225 |       0.0243 |       0.0243 |       0.0242 |       0.0242 |       0.0266 |       0.0266 |       0.0266 |       0.0266 |       0.0279 |       0.0279 |       0.0280 |       0.0280 |       0.0297 |       0.0297 |       0.0297 |       0.0297 |       0.0377 |       0.0377 |       0.0213 |       0.0213 |       0.0317 |       0.0317 |       0.0200 |       0.0200 |
dl1.inv_rate                                0.0000 |       0.0000 |       0.0000 |       0.0000 |       0.0000 |       0.0000 |       0.0000 |       0.0000 |       0.0000 |       0.0000 |       0.0000 |       0.0000 |       0.0000 |       0.0000 |       0.0000 |       0.0000 |       0.0000 |       0.0000 |       0.0000 |       0.0000 |       0.0000 |       0.0000 |       0.0000 |       0.0000 |       0.0000 |       0.0000 |       0.0000 |       0.0000 |       0.0000 |       0.0000 |       0.0000 |       0.0000 |       0.0000 |       0.0000 |       0.0000 |       0.0000 |       0.0000 |       0.0000 |       0.0000 |       0.0000 |       0.0000 |       0.0000 |       0.0000 |       0.0000 |
dl2.accesses                                  4857 |         4857 |         4858 |         4858 |        10803 |        10803 |        10609 |        10609 |        24047 |        24047 |        23945 |        23945 |        58173 |        58173 |        57864 |        57864 |       133467 |       133467 |       133229 |       133229 |       289820 |       289820 |       288168 |       288168 |       688983 |       688983 |       686980 |       686980 |      1502118 |      1502118 |      1494930 |      1494930 |      3375025 |      3375025 |      3355724 |      3355724 |     14014732 |     14014732 |      6874671 |      6874671 |     22035508 |     22035508 |     14187358 |     14187358 |
dl2.hits                                      3439 |         3439 |         3475 |         3475 |         8872 |         8872 |         8714 |         8714 |        21097 |        21097 |        21037 |        21037 |        53186 |        53186 |        52918 |        52918 |       124375 |       124375 |       124178 |       124178 |       272533 |       272533 |       270918 |       270918 |       655312 |       655312 |       653346 |       653346 |      1435683 |      1435060 |      1428532 |      1407663 |      3242397 |      2975861 |      3197491 |      2941254 |     12653980 |     12612916 |      5571317 |      5472425 |     19307290 |     19121222 |     11517758 |     11176483 |
dl2.misses                                    1418 |         1418 |         1383 |         1383 |         1931 |         1931 |         1895 |         1895 |         2950 |         2950 |         2908 |         2908 |         4987 |         4987 |         4946 |         4946 |         9092 |         9092 |         9051 |         9051 |        17287 |        17287 |        17250 |        17250 |        33671 |        33671 |        33634 |        33634 |        66435 |        67058 |        66398 |        87267 |       132628 |       399164 |       158233 |       414470 |      1360752 |      1401816 |      1303354 |      1402246 |      2728218 |      2914286 |      2669600 |      3010875 |
dl2.replacements                               285 |          285 |            0 |            0 |          286 |          286 |            0 |            0 |          288 |          288 |            0 |            0 |          284 |          284 |            0 |            0 |          292 |          292 |            0 |            0 |          290 |          290 |            0 |            0 |          290 |          290 |            0 |            0 |          286 |         1522 |            0 |        21731 |         1556 |       333628 |        27161 |       348934 |      1229680 |      1336280 |      1172282 |      1336710 |      2597146 |      2848750 |      2538528 |      2945339 |
dl2.writebacks                                 153 |          153 |            0 |            0 |          152 |          152 |            0 |            0 |          154 |          154 |            0 |            0 |          153 |          153 |            0 |            0 |          153 |          153 |            0 |            0 |          152 |          152 |            0 |            0 |          152 |          152 |            0 |            0 |          152 |         1247 |            0 |        21503 |         1274 |       319416 |        26933 |       332084 |       737952 |       815650 |       716502 |       836772 |      1586269 |      1801862 |      1557821 |      1911553 |
dl2.invalidations                                0 |            0 |            0 |            0 |            0 |            0 |            0 |            0 |            0 |            0 |            0 |            0 |            0 |            0 |            0 |            0 |            0 |            0 |            0 |            0 |            0 |            0 |            0 |            0 |            0 |            0 |            0 |            0 |            0 |            0 |            0 |            0 |            0 |            0 |            0 |            0 |            0 |            0 |            0 |            0 |            0 |            0 |            0 |            0 |
dl2.miss_rate                               0.2919 |       0.2919 |       0.2847 |       0.2847 |       0.1787 |       0.1787 |       0.1786 |       0.1786 |       0.1227 |       0.1227 |       0.1214 |       0.1214 |       0.0857 |       0.0857 |       0.0855 |       0.0855 |       0.0681 |       0.0681 |       0.0679 |       0.0679 |       0.0596 |       0.0596 |       0.0599 |       0.0599 |       0.0489 |       0.0489 |       0.0490 |       0.0490 |       0.0442 |       0.0446 |       0.0444 |       0.0584 |       0.0393 |       0.1183 |       0.0472 |       0.1235 |       0.0971 |       0.1000 |       0.1896 |       0.2040 |       0.1238 |       0.1323 |       0.1882 |       0.2122 |
dl2.repl_rate                               0.0587 |       0.0587 |       0.0000 |       0.0000 |       0.0265 |       0.0265 |       0.0000 |       0.0000 |       0.0120 |       0.0120 |       0.0000 |       0.0000 |       0.0049 |       0.0049 |       0.0000 |       0.0000 |       0.0022 |       0.0022 |       0.0000 |       0.0000 |       0.0010 |       0.0010 |       0.0000 |       0.0000 |       0.0004 |       0.0004 |       0.0000 |       0.0000 |       0.0002 |       0.0010 |       0.0000 |       0.0145 |       0.0005 |       0.0989 |       0.0081 |       0.1040 |       0.0877 |       0.0953 |       0.1705 |       0.1944 |       0.1179 |       0.1293 |       0.1789 |       0.2076 |
dl2.wb_rate                                 0.0315 |       0.0315 |       0.0000 |       0.0000 |       0.0141 |       0.0141 |       0.0000 |       0.0000 |       0.0064 |       0.0064 |       0.0000 |       0.0000 |       0.0026 |       0.0026 |       0.0000 |       0.0000 |       0.0011 |       0.0011 |       0.0000 |       0.0000 |       0.0005 |       0.0005 |       0.0000 |       0.0000 |       0.0002 |       0.0002 |       0.0000 |       0.0000 |       0.0001 |       0.0008 |       0.0000 |       0.0144 |       0.0004 |       0.0946 |       0.0080 |       0.0990 |       0.0527 |       0.0582 |       0.1042 |       0.1217 |       0.0720 |       0.0818 |       0.1098 |       0.1347 |
dl2.inv_rate                                0.0000 |       0.0000 |       0.0000 |       0.0000 |       0.0000 |       0.0000 |       0.0000 |       0.0000 |       0.0000 |       0.0000 |       0.0000 |       0.0000 |       0.0000 |       0.0000 |       0.0000 |       0.0000 |       0.0000 |       0.0000 |       0.0000 |       0.0000 |       0.0000 |       0.0000 |       0.0000 |       0.0000 |       0.0000 |       0.0000 |       0.0000 |       0.0000 |       0.0000 |       0.0000 |       0.0000 |       0.0000 |       0.0000 |       0.0000 |       0.0000 |       0.0000 |       0.0000 |       0.0000 |       0.0000 |       0.0000 |       0.0000 |       0.0000 |       0.0000 |       0.0000 |
itlb.accesses                               462894 |       462894 |       462894 |       462894 |      1013413 |      1013413 |      1013413 |      1013413 |      2151757 |      2151757 |      2151757 |      2151757 |      4641784 |      4641784 |      4641784 |      4641784 |      9952909 |      9952909 |      9952909 |      9952909 |     20662287 |     20662287 |     20662287 |     20662287 |     44824180 |     44824180 |     44824180 |     44824180 |     93705063 |     93705063 |     93705063 |     93705063 |    199532576 |    199532576 |    199532576 |    199532576 |    580575816 |    580575816 |    580575816 |    580575816 |   1350406091 |   1350406091 |   1350406091 |   1350406091 |
itlb.hits                                   462883 |       462883 |       462883 |       462883 |      1013402 |      1013402 |      1013402 |      1013402 |      2151746 |      2151746 |      2151746 |      2151746 |      4641773 |      4641773 |      4641773 |      4641773 |      9952898 |      9952898 |      9952898 |      9952898 |     20662276 |     20662276 |     20662276 |     20662276 |     44824169 |     44824169 |     44824169 |     44824169 |     93705052 |     93705052 |     93705052 |     93705052 |    199532565 |    199532565 |    199532565 |    199532565 |    580575805 |    580575805 |    580575805 |    580575805 |   1350406080 |   1350406080 |   1350406080 |   1350406080 |
itlb.misses                                     11 |           11 |           11 |           11 |           11 |           11 |           11 |           11 |           11 |           11 |           11 |           11 |           11 |           11 |           11 |           11 |           11 |           11 |           11 |           11 |           11 |           11 |           11 |           11 |           11 |           11 |           11 |           11 |           11 |           11 |           11 |           11 |           11 |           11 |           11 |           11 |           11 |           11 |           11 |           11 |           11 |           11 |           11 |           11 |
itlb.replacements                                0 |            0 |            0 |            0 |            0 |            0 |            0 |            0 |            0 |            0 |            0 |            0 |            0 |            0 |            0 |            0 |            0 |            0 |            0 |            0 |            0 |            0 |            0 |            0 |            0 |            0 |            0 |            0 |            0 |            0 |            0 |            0 |            0 |            0 |            0 |            0 |            0 |            0 |            0 |            0 |            0 |            0 |            0 |            0 |
itlb.writebacks                                  0 |            0 |            0 |            0 |            0 |            0 |            0 |            0 |            0 |            0 |            0 |            0 |            0 |            0 |            0 |            0 |            0 |            0 |            0 |            0 |            0 |            0 |            0 |            0 |            0 |            0 |            0 |            0 |            0 |            0 |            0 |            0 |            0 |            0 |            0 |            0 |            0 |            0 |            0 |            0 |            0 |            0 |            0 |            0 |
itlb.invalidations                               0 |            0 |            0 |            0 |            0 |            0 |            0 |            0 |            0 |            0 |            0 |            0 |            0 |            0 |            0 |            0 |            0 |            0 |            0 |            0 |            0 |            0 |            0 |            0 |            0 |            0 |            0 |            0 |            0 |            0 |            0 |            0 |            0 |            0 |            0 |            0 |            0 |            0 |            0 |            0 |            0 |            0 |            0 |            0 |
itlb.miss_rate                              0.0000 |       0.0000 |       0.0000 |       0.0000 |       0.0000 |       0.0000 |       0.0000 |       0.0000 |       0.0000 |       0.0000 |       0.0000 |       0.0000 |       0.0000 |       0.0000 |       0.0000 |       0.0000 |       0.0000 |       0.0000 |       0.0000 |       0.0000 |       0.0000 |       0.0000 |       0.0000 |       0.0000 |       0.0000 |       0.0000 |       0.0000 |       0.0000 |       0.0000 |       0.0000 |       0.0000 |       0.0000 |       0.0000 |       0.0000 |       0.0000 |       0.0000 |       0.0000 |       0.0000 |       0.0000 |       0.0000 |       0.0000 |       0.0000 |       0.0000 |       0.0000 |
itlb.repl_rate                              0.0000 |       0.0000 |       0.0000 |       0.0000 |       0.0000 |       0.0000 |       0.0000 |       0.0000 |       0.0000 |       0.0000 |       0.0000 |       0.0000 |       0.0000 |       0.0000 |       0.0000 |       0.0000 |       0.0000 |       0.0000 |       0.0000 |       0.0000 |       0.0000 |       0.0000 |       0.0000 |       0.0000 |       0.0000 |       0.0000 |       0.0000 |       0.0000 |       0.0000 |       0.0000 |       0.0000 |       0.0000 |       0.0000 |       0.0000 |       0.0000 |       0.0000 |       0.0000 |       0.0000 |       0.0000 |       0.0000 |       0.0000 |       0.0000 |       0.0000 |       0.0000 |
itlb.wb_rate                                0.0000 |       0.0000 |       0.0000 |       0.0000 |       0.0000 |       0.0000 |       0.0000 |       0.0000 |       0.0000 |       0.0000 |       0.0000 |       0.0000 |       0.0000 |       0.0000 |       0.0000 |       0.0000 |       0.0000 |       0.0000 |       0.0000 |       0.0000 |       0.0000 |       0.0000 |       0.0000 |       0.0000 |       0.0000 |       0.0000 |       0.0000 |       0.0000 |       0.0000 |       0.0000 |       0.0000 |       0.0000 |       0.0000 |       0.0000 |       0.0000 |       0.0000 |       0.0000 |       0.0000 |       0.0000 |       0.0000 |       0.0000 |       0.0000 |       0.0000 |       0.0000 |
itlb.inv_rate                               0.0000 |       0.0000 |       0.0000 |       0.0000 |       0.0000 |       0.0000 |       0.0000 |       0.0000 |       0.0000 |       0.0000 |       0.0000 |       0.0000 |       0.0000 |       0.0000 |       0.0000 |       0.0000 |       0.0000 |       0.0000 |       0.0000 |       0.0000 |       0.0000 |       0.0000 |       0.0000 |       0.0000 |       0.0000 |       0.0000 |       0.0000 |       0.0000 |       0.0000 |       0.0000 |       0.0000 |       0.0000 |       0.0000 |       0.0000 |       0.0000 |       0.0000 |       0.0000 |       0.0000 |       0.0000 |       0.0000 |       0.0000 |       0.0000 |       0.0000 |       0.0000 |
dtlb.accesses                               139031 |       139031 |       139031 |       139031 |       294559 |       294559 |       294559 |       294559 |       617424 |       617424 |       617424 |       617424 |      1304731 |      1304731 |      1304731 |      1304731 |      2761294 |      2761294 |      2761294 |      2761294 |      5730009 |      5730009 |      5730009 |      5730009 |     12167423 |     12167423 |     12167423 |     12167423 |     25355273 |     25355273 |     25355273 |     25355273 |     53270893 |     53270893 |     53270893 |     53270893 |    143912018 |    143912018 |    143912018 |    143912018 |    315689469 |    315689469 |    315689469 |    315689469 |
dtlb.hits                                   139019 |       139019 |       139019 |       139019 |       294543 |       294543 |       294543 |       294543 |       617400 |       617400 |       617400 |       617400 |      1304691 |      1304691 |      1304691 |      1304691 |      2761222 |      2761222 |      2761222 |      2761222 |      5729842 |      5729842 |      5729842 |      5729842 |     12166550 |     12166550 |     12166550 |     12166550 |     25353009 |     25353009 |     25353009 |     25353009 |     53264291 |     53264291 |     53264291 |     53264291 |    143897029 |    143897029 |    143897029 |    143897029 |    315657043 |    315657043 |    315657043 |    315657043 |
dtlb.misses                                     12 |           12 |           12 |           12 |           16 |           16 |           16 |           16 |           24 |           24 |           24 |           24 |           40 |           40 |           40 |           40 |           72 |           72 |           72 |           72 |          167 |          167 |          167 |          167 |          873 |          873 |          873 |          873 |         2264 |         2264 |         2264 |         2264 |         6602 |         6602 |         6602 |         6602 |        14989 |        14989 |        14989 |        14989 |        32426 |        32426 |        32426 |        32426 |
dtlb.replacements                                0 |            0 |            0 |            0 |            0 |            0 |            0 |            0 |            0 |            0 |            0 |            0 |            0 |            0 |            0 |            0 |            0 |            0 |            0 |            0 |           39 |           39 |           39 |           39 |          745 |          745 |          745 |          745 |         2136 |         2136 |         2136 |         2136 |         6474 |         6474 |         6474 |         6474 |        14861 |        14861 |        14861 |        14861 |        32298 |        32298 |        32298 |        32298 |
dtlb.writebacks                                  0 |            0 |            0 |            0 |            0 |            0 |            0 |            0 |            0 |            0 |            0 |            0 |            0 |            0 |            0 |            0 |            0 |            0 |            0 |            0 |           37 |           37 |           37 |           37 |          743 |          743 |          743 |          743 |         2134 |         2134 |         2134 |         2134 |         6472 |         6472 |         6472 |         6472 |        12797 |        12797 |        12797 |        12797 |        28174 |        28174 |        28174 |        28174 |
dtlb.invalidations                               0 |            0 |            0 |            0 |            0 |            0 |            0 |            0 |            0 |            0 |            0 |            0 |            0 |            0 |            0 |            0 |            0 |            0 |            0 |            0 |            0 |            0 |            0 |            0 |            0 |            0 |            0 |            0 |            0 |            0 |            0 |            0 |            0 |            0 |            0 |            0 |            0 |            0 |            0 |            0 |            0 |            0 |            0 |            0 |
dtlb.miss_rate                              0.0001 |       0.0001 |       0.0001 |       0.0001 |       0.0001 |       0.0001 |       0.0001 |       0.0001 |       0.0000 |       0.0000 |       0.0000 |       0.0000 |       0.0000 |       0.0000 |       0.0000 |       0.0000 |       0.0000 |       0.0000 |       0.0000 |       0.0000 |       0.0000 |       0.0000 |       0.0000 |       0.0000 |       0.0001 |       0.0001 |       0.0001 |       0.0001 |       0.0001 |       0.0001 |       0.0001 |       0.0001 |       0.0001 |       0.0001 |       0.0001 |       0.0001 |       0.0001 |       0.0001 |       0.0001 |       0.0001 |       0.0001 |       0.0001 |       0.0001 |       0.0001 |
dtlb.repl_rate                              0.0000 |       0.0000 |       0.0000 |       0.0000 |       0.0000 |       0.0000 |       0.0000 |       0.0000 |       0.0000 |       0.0000 |       0.0000 |       0.0000 |       0.0000 |       0.0000 |       0.0000 |       0.0000 |       0.0000 |       0.0000 |       0.0000 |       0.0000 |       0.0000 |       0.0000 |       0.0000 |       0.0000 |       0.0001 |       0.0001 |       0.0001 |       0.0001 |       0.0001 |       0.0001 |       0.0001 |       0.0001 |       0.0001 |       0.0001 |       0.0001 |       0.0001 |       0.0001 |       0.0001 |       0.0001 |       0.0001 |       0.0001 |       0.0001 |       0.0001 |       0.0001 |
dtlb.wb_rate                                0.0000 |       0.0000 |       0.0000 |       0.0000 |       0.0000 |       0.0000 |       0.0000 |       0.0000 |       0.0000 |       0.0000 |       0.0000 |       0.0000 |       0.0000 |       0.0000 |       0.0000 |       0.0000 |       0.0000 |       0.0000 |       0.0000 |       0.0000 |       0.0000 |       0.0000 |       0.0000 |       0.0000 |       0.0001 |       0.0001 |       0.0001 |       0.0001 |       0.0001 |       0.0001 |       0.0001 |       0.0001 |       0.0001 |       0.0001 |       0.0001 |       0.0001 |       0.0001 |       0.0001 |       0.0001 |       0.0001 |       0.0001 |       0.0001 |       0.0001 |       0.0001 |
dtlb.inv_rate                               0.0000 |       0.0000 |       0.0000 |       0.0000 |       0.0000 |       0.0000 |       0.0000 |       0.0000 |       0.0000 |       0.0000 |       0.0000 |       0.0000 |       0.0000 |       0.0000 |       0.0000 |       0.0000 |       0.0000 |       0.0000 |       0.0000 |       0.0000 |       0.0000 |       0.0000 |       0.0000 |       0.0000 |       0.0000 |       0.0000 |       0.0000 |       0.0000 |       0.0000 |       0.0000 |       0.0000 |       0.0000 |       0.0000 |       0.0000 |       0.0000 |       0.0000 |       0.0000 |       0.0000 |       0.0000 |       0.0000 |       0.0000 |       0.0000 |       0.0000 |       0.0000 |
ld_text_base                            0x00400000 |   0x00400000 |   0x00400000 |   0x00400000 |   0x00400000 |   0x00400000 |   0x00400000 |   0x00400000 |   0x00400000 |   0x00400000 |   0x00400000 |   0x00400000 |   0x00400000 |   0x00400000 |   0x00400000 |   0x00400000 |   0x00400000 |   0x00400000 |   0x00400000 |   0x00400000 |   0x00400000 |   0x00400000 |   0x00400000 |   0x00400000 |   0x00400000 |   0x00400000 |   0x00400000 |   0x00400000 |   0x00400000 |   0x00400000 |   0x00400000 |   0x00400000 |   0x00400000 |   0x00400000 |   0x00400000 |   0x00400000 |   0x00400000 |   0x00400000 |   0x00400000 |   0x00400000 |   0x00400000 |   0x00400000 |   0x00400000 |   0x00400000 |
ld_text_size                                 78480 |        78480 |        78480 |        78480 |        78512 |        78512 |        78512 |        78512 |        78528 |        78528 |        78528 |        78528 |        78528 |        78528 |        78528 |        78528 |        78528 |        78528 |        78528 |        78528 |        78544 |        78544 |        78544 |        78544 |        78544 |        78544 |        78544 |        78544 |        78544 |        78544 |        78544 |        78544 |        78544 |        78544 |        78544 |        78544 |        78544 |        78544 |        78544 |        78544 |        78544 |        78544 |        78544 |        78544 |
ld_data_base                            0x10000000 |   0x10000000 |   0x10000000 |   0x10000000 |   0x10000000 |   0x10000000 |   0x10000000 |   0x10000000 |   0x10000000 |   0x10000000 |   0x10000000 |   0x10000000 |   0x10000000 |   0x10000000 |   0x10000000 |   0x10000000 |   0x10000000 |   0x10000000 |   0x10000000 |   0x10000000 |   0x10000000 |   0x10000000 |   0x10000000 |   0x10000000 |   0x10000000 |   0x10000000 |   0x10000000 |   0x10000000 |   0x10000000 |   0x10000000 |   0x10000000 |   0x10000000 |   0x10000000 |   0x10000000 |   0x10000000 |   0x10000000 |   0x10000000 |   0x10000000 |   0x10000000 |   0x10000000 |   0x10000000 |   0x10000000 |   0x10000000 |   0x10000000 |
ld_data_size                                  8192 |         8192 |         8192 |         8192 |         8192 |         8192 |         8192 |         8192 |         8192 |         8192 |         8192 |         8192 |         8192 |         8192 |         8192 |         8192 |         8192 |         8192 |         8192 |         8192 |         8192 |         8192 |         8192 |         8192 |         8192 |         8192 |         8192 |         8192 |         8192 |         8192 |         8192 |         8192 |         8192 |         8192 |         8192 |         8192 |         8192 |         8192 |         8192 |         8192 |         8192 |         8192 |         8192 |         8192 |
ld_stack_base                           0x7fffc000 |   0x7fffc000 |   0x7fffc000 |   0x7fffc000 |   0x7fffc000 |   0x7fffc000 |   0x7fffc000 |   0x7fffc000 |   0x7fffc000 |   0x7fffc000 |   0x7fffc000 |   0x7fffc000 |   0x7fffc000 |   0x7fffc000 |   0x7fffc000 |   0x7fffc000 |   0x7fffc000 |   0x7fffc000 |   0x7fffc000 |   0x7fffc000 |   0x7fffc000 |   0x7fffc000 |   0x7fffc000 |   0x7fffc000 |   0x7fffc000 |   0x7fffc000 |   0x7fffc000 |   0x7fffc000 |   0x7fffc000 |   0x7fffc000 |   0x7fffc000 |   0x7fffc000 |   0x7fffc000 |   0x7fffc000 |   0x7fffc000 |   0x7fffc000 |   0x7fffc000 |   0x7fffc000 |   0x7fffc000 |   0x7fffc000 |   0x7fffc000 |   0x7fffc000 |   0x7fffc000 |   0x7fffc000 |
ld_stack_size                                16384 |        16384 |        16384 |        16384 |        16384 |        16384 |        16384 |        16384 |        16384 |        16384 |        16384 |        16384 |        16384 |        16384 |        16384 |        16384 |        16384 |        16384 |        16384 |        16384 |        16384 |        16384 |        16384 |        16384 |        16384 |        16384 |        16384 |        16384 |        16384 |        16384 |        16384 |        16384 |        16384 |        16384 |        16384 |        16384 |        16384 |        16384 |        16384 |        16384 |        16384 |        16384 |        16384 |        16384 |
ld_prog_entry                           0x00400140 |   0x00400140 |   0x00400140 |   0x00400140 |   0x00400140 |   0x00400140 |   0x00400140 |   0x00400140 |   0x00400140 |   0x00400140 |   0x00400140 |   0x00400140 |   0x00400140 |   0x00400140 |   0x00400140 |   0x00400140 |   0x00400140 |   0x00400140 |   0x00400140 |   0x00400140 |   0x00400140 |   0x00400140 |   0x00400140 |   0x00400140 |   0x00400140 |   0x00400140 |   0x00400140 |   0x00400140 |   0x00400140 |   0x00400140 |   0x00400140 |   0x00400140 |   0x00400140 |   0x00400140 |   0x00400140 |   0x00400140 |   0x00400140 |   0x00400140 |   0x00400140 |   0x00400140 |   0x00400140 |   0x00400140 |   0x00400140 |   0x00400140 |
ld_environ_base                         0x7fff8000 |   0x7fff8000 |   0x7fff8000 |   0x7fff8000 |   0x7fff8000 |   0x7fff8000 |   0x7fff8000 |   0x7fff8000 |   0x7fff8000 |   0x7fff8000 |   0x7fff8000 |   0x7fff8000 |   0x7fff8000 |   0x7fff8000 |   0x7fff8000 |   0x7fff8000 |   0x7fff8000 |   0x7fff8000 |   0x7fff8000 |   0x7fff8000 |   0x7fff8000 |   0x7fff8000 |   0x7fff8000 |   0x7fff8000 |   0x7fff8000 |   0x7fff8000 |   0x7fff8000 |   0x7fff8000 |   0x7fff8000 |   0x7fff8000 |   0x7fff8000 |   0x7fff8000 |   0x7fff8000 |   0x7fff8000 |   0x7fff8000 |   0x7fff8000 |   0x7fff8000 |   0x7fff8000 |   0x7fff8000 |   0x7fff8000 |   0x7fff8000 |   0x7fff8000 |   0x7fff8000 |   0x7fff8000 |
ld_target_big_endian                             0 |            0 |            0 |            0 |            0 |            0 |            0 |            0 |            0 |            0 |            0 |            0 |            0 |            0 |            0 |            0 |            0 |            0 |            0 |            0 |            0 |            0 |            0 |            0 |            0 |            0 |            0 |            0 |            0 |            0 |            0 |            0 |            0 |            0 |            0 |            0 |            0 |            0 |            0 |            0 |            0 |            0 |            0 |            0 |
mem.page_count                                  32 |           32 |           32 |           32 |           36 |           36 |           36 |           36 |           44 |           44 |           44 |           44 |           60 |           60 |           60 |           60 |           92 |           92 |           92 |           92 |          156 |          156 |          156 |          156 |          284 |          284 |          284 |          284 |          540 |          540 |          540 |          540 |         1052 |         1052 |         1052 |         1052 |         4148 |         4148 |         4148 |         4148 |         8267 |         8267 |         8267 |         8267 |
mem.page_mem                                  128k |         128k |         128k |         128k |         144k |         144k |         144k |         144k |         176k |         176k |         176k |         176k |         240k |         240k |         240k |         240k |         368k |         368k |         368k |         368k |         624k |         624k |         624k |         624k |        1136k |        1136k |        1136k |        1136k |        2160k |        2160k |        2160k |        2160k |        4208k |        4208k |        4208k |        4208k |       16592k |       16592k |       16592k |       16592k |       33068k |       33068k |       33068k |       33068k |
mem.ptab_misses                                 32 |           32 |           32 |           32 |           36 |           36 |           36 |           36 |           44 |           44 |           44 |           44 |           60 |           60 |           60 |           60 |           92 |           92 |           92 |           92 |          156 |          156 |          156 |          156 |          284 |          284 |          284 |          284 |          540 |          540 |          540 |          540 |         1052 |         1052 |         1052 |         1052 |        22560 |        22560 |        22560 |        22560 |        26681 |        26681 |        26681 |        26681 |
mem.ptab_accesses                          2615180 |      2615180 |      2615180 |      2615180 |      5128504 |      5128504 |      5128504 |      5128504 |     10327706 |     10327706 |     10327706 |     10327706 |     21662428 |     21662428 |     21662428 |     21662428 |     45820054 |     45820054 |     45820054 |     45820054 |     94595092 |     94595092 |     94595092 |     94595092 |    204117492 |    204117492 |    204117492 |    204117492 |    426016724 |    426016724 |    426016724 |    426016724 |    905158016 |    905158016 |    905158016 |    905158016 |   2610613226 |   2610613226 |   2610613226 |   2610613226 |   6033489228 |   6033489228 |   6033489228 |   6033489228 |
mem.ptab_miss_rate                          0.0000 |       0.0000 |       0.0000 |       0.0000 |       0.0000 |       0.0000 |       0.0000 |       0.0000 |       0.0000 |       0.0000 |       0.0000 |       0.0000 |       0.0000 |       0.0000 |       0.0000 |       0.0000 |       0.0000 |       0.0000 |       0.0000 |       0.0000 |       0.0000 |       0.0000 |       0.0000 |       0.0000 |       0.0000 |       0.0000 |       0.0000 |       0.0000 |       0.0000 |       0.0000 |       0.0000 |       0.0000 |       0.0000 |       0.0000 |       0.0000 |       0.0000 |       0.0000 |       0.0000 |       0.0000 |       0.0000 |       0.0000 |       0.0000 |       0.0000 |       0.0000 |
-------------------------------------------------------------------------------------------------
sim-bpred                                     4096 |         4096 |         4096 |         4096 |         4096 |         4096 |         4096 |         8192 |         8192 |         8192 |         8192 |         8192 |         8192 |         8192 |        16384 |        16384 |        16384 |        16384 |        16384 |        16384 |        16384 |        32768 |        32768 |        32768 |        32768 |        32768 |        32768 |        32768 |        65536 |        65536 |        65536 |        65536 |        65536 |        65536 |        65536 |       131072 |       131072 |       131072 |       131072 |       131072 |       131072 |       131072 |       262144 |       262144 |       262144 |       262144 |       262144 |       262144 |       262144 |       524288 |       524288 |       524288 |       524288 |       524288 |       524288 |       524288 |      1048576 |      1048576 |      1048576 |      1048576 |      1048576 |      1048576 |      1048576 |      2097152 |      2097152 |      2097152 |      2097152 |      2097152 |      2097152 |      2097152 |      4194304 |      4194304 |      4194304 |      4194304 |      4194304 |      4194304 |      4194304 |
-bpred bimod -bpred:bimod 512
-bpred bimod -bpred:bimod 1024
-bpred bimod -bpred:bimod 2048
-bpred 2lev -bpred:2lev 1 512 10 1
-bpred 2lev -bpred:2lev 1 1024 10 1
-bpred 2lev -bpred:2lev 1 2048 10 1
-bpred 2lev -bpred:2lev 1 4096 10 1
-------------------------------------------------------------------------------------------------
sim_num_insn                                462894 |       462894 |       462894 |       462894 |       462894 |       462894 |       462894 |      1013413 |      1013413 |      1013413 |      1013413 |      1013413 |      1013413 |      1013413 |      2151757 |      2151757 |      2151757 |      2151757 |      2151757 |      2151757 |      2151757 |      4641784 |      4641784 |      4641784 |      4641784 |      4641784 |      4641784 |      4641784 |      9952909 |      9952909 |      9952909 |      9952909 |      9952909 |      9952909 |      9952909 |     20662287 |     20662287 |     20662287 |     20662287 |     20662287 |     20662287 |     20662287 |     44824180 |     44824180 |     44824180 |     44824180 |     44824180 |     44824180 |     44824180 |     93705063 |     93705063 |     93705063 |     93705063 |     93705063 |     93705063 |     93705063 |    199532576 |    199532576 |    199532576 |    199532576 |    199532576 |    199532576 |    199532576 |    580575816 |    580575816 |    580575816 |    580575816 |    580575816 |    580575816 |    580575816 |   1350406091 |   1350406091 |   1350406091 |   1350406091 |   1350406091 |   1350406091 |   1350406091 |
sim_num_refs                                122565 |       122565 |       122565 |       122565 |       122565 |       122565 |       122565 |       261709 |       261709 |       261709 |       261709 |       261709 |       261709 |       261709 |       551806 |       551806 |       551806 |       551806 |       551806 |       551806 |       551806 |      1173577 |      1173577 |      1173577 |      1173577 |      1173577 |      1173577 |      1173577 |      2499068 |      2499068 |      2499068 |      2499068 |      2499068 |      2499068 |      2499068 |      5205639 |      5205639 |      5205639 |      5205639 |      5205639 |      5205639 |      5205639 |     11118765 |     11118765 |     11118765 |     11118765 |     11118765 |     11118765 |     11118765 |     23258039 |     23258039 |     23258039 |     23258039 |     23258039 |     23258039 |     23258039 |     49076507 |     49076507 |     49076507 |     49076507 |     49076507 |     49076507 |     49076507 |    135523327 |    135523327 |    135523327 |    135523327 |    135523327 |    135523327 |    135523327 |    298912170 |    298912170 |    298912170 |    298912170 |    298912170 |    298912170 |    298912170 |
sim_elapsed_time                                 1 |            1 |            1 |            1 |            1 |            1 |            1 |            1 |            1 |            1 |            1 |            1 |            1 |            1 |            1 |            1 |            1 |            1 |            1 |            1 |            1 |            1 |            1 |            1 |            1 |            1 |            1 |            1 |            1 |            2 |            1 |            1 |            1 |            1 |            1 |            2 |            2 |            3 |            2 |            2 |            3 |            2 |            5 |            5 |            5 |            5 |            5 |            5 |            5 |           10 |           11 |           11 |           10 |           11 |           11 |           11 |           22 |           22 |           23 |           23 |           23 |           23 |           23 |           68 |           69 |           68 |           70 |           70 |           70 |           70 |          160 |          160 |          160 |          165 |          165 |          165 |          165 |
sim_inst_rate                          462894.0000 |  462894.0000 |  462894.0000 |  462894.0000 |  462894.0000 |  462894.0000 |  462894.0000 | 1013413.0000 | 1013413.0000 | 1013413.0000 | 1013413.0000 | 1013413.0000 | 1013413.0000 | 1013413.0000 | 2151757.0000 | 2151757.0000 | 2151757.0000 | 2151757.0000 | 2151757.0000 | 2151757.0000 | 2151757.0000 | 4641784.0000 | 4641784.0000 | 4641784.0000 | 4641784.0000 | 4641784.0000 | 4641784.0000 | 4641784.0000 | 9952909.0000 | 4976454.5000 | 9952909.0000 | 9952909.0000 | 9952909.0000 | 9952909.0000 | 9952909.0000 |10331143.5000 |10331143.5000 | 6887429.0000 |10331143.5000 |10331143.5000 | 6887429.0000 |10331143.5000 | 8964836.0000 | 8964836.0000 | 8964836.0000 | 8964836.0000 | 8964836.0000 | 8964836.0000 | 8964836.0000 | 9370506.3000 | 8518642.0909 | 8518642.0909 | 9370506.3000 | 8518642.0909 | 8518642.0909 | 8518642.0909 | 9069662.5455 | 9069662.5455 | 8675329.3913 | 8675329.3913 | 8675329.3913 | 8675329.3913 | 8675329.3913 | 8537879.6471 | 8414142.2609 | 8537879.6471 | 8293940.2286 | 8293940.2286 | 8293940.2286 | 8293940.2286 | 8440038.0687 | 8440038.0687 | 8440038.0687 | 8184279.3394 | 8184279.3394 | 8184279.3394 | 8184279.3394 |
sim_num_branches                             75993 |        75993 |        75993 |        75993 |        75993 |        75993 |        75993 |       167560 |       167560 |       167560 |       167560 |       167560 |       167560 |       167560 |       358946 |       358946 |       358946 |       358946 |       358946 |       358946 |       358946 |       777593 |       777593 |       777593 |       777593 |       777593 |       777593 |       777593 |      1676337 |      1676337 |      1676337 |      1676337 |      1676337 |      1676337 |      1676337 |      3488550 |      3488550 |      3488550 |      3488550 |      3488550 |      3488550 |      3488550 |      7590624 |      7590624 |      7590624 |      7590624 |      7590624 |      7590624 |      7590624 |     15934016 |     15934016 |     15934016 |     15934016 |     15934016 |     15934016 |     15934016 |     33983473 |     33983473 |     33983473 |     33983473 |     33983473 |     33983473 |     33983473 |    104798752 |    104798752 |    104798752 |    104798752 |    104798752 |    104798752 |    104798752 |    261999696 |    261999696 |    261999696 |    261999696 |    261999696 |    261999696 |    261999696 |
sim_IPB                                     6.0913 |       6.0913 |       6.0913 |       6.0913 |       6.0913 |       6.0913 |       6.0913 |       6.0481 |       6.0481 |       6.0481 |       6.0481 |       6.0481 |       6.0481 |       6.0481 |       5.9947 |       5.9947 |       5.9947 |       5.9947 |       5.9947 |       5.9947 |       5.9947 |       5.9694 |       5.9694 |       5.9694 |       5.9694 |       5.9694 |       5.9694 |       5.9694 |       5.9373 |       5.9373 |       5.9373 |       5.9373 |       5.9373 |       5.9373 |       5.9373 |       5.9229 |       5.9229 |       5.9229 |       5.9229 |       5.9229 |       5.9229 |       5.9229 |       5.9052 |       5.9052 |       5.9052 |       5.9052 |       5.9052 |       5.9052 |       5.9052 |       5.8808 |       5.8808 |       5.8808 |       5.8808 |       5.8808 |       5.8808 |       5.8808 |       5.8715 |       5.8715 |       5.8715 |       5.8715 |       5.8715 |       5.8715 |       5.8715 |       5.5399 |       5.5399 |       5.5399 |       5.5399 |       5.5399 |       5.5399 |       5.5399 |       5.1542 |       5.1542 |       5.1542 |       5.1542 |       5.1542 |       5.1542 |       5.1542 |
bpred_bimod.lookups                          75993 |        75993 |        75993 |xxxxxxxxxxxxx |xxxxxxxxxxxxx |xxxxxxxxxxxxx |xxxxxxxxxxxxx |       167560 |       167560 |       167560 |xxxxxxxxxxxxx |xxxxxxxxxxxxx |xxxxxxxxxxxxx |xxxxxxxxxxxxx |       358946 |       358946 |       358946 |xxxxxxxxxxxxx |xxxxxxxxxxxxx |xxxxxxxxxxxxx |xxxxxxxxxxxxx |       777593 |       777593 |       777593 |xxxxxxxxxxxxx |xxxxxxxxxxxxx |xxxxxxxxxxxxx |xxxxxxxxxxxxx |      1676337 |      1676337 |      1676337 |xxxxxxxxxxxxx |xxxxxxxxxxxxx |xxxxxxxxxxxxx |xxxxxxxxxxxxx |      3488550 |      3488550 |      3488550 |xxxxxxxxxxxxx |xxxxxxxxxxxxx |xxxxxxxxxxxxx |xxxxxxxxxxxxx |      7590624 |      7590624 |      7590624 |xxxxxxxxxxxxx |xxxxxxxxxxxxx |xxxxxxxxxxxxx |xxxxxxxxxxxxx |     15934016 |     15934016 |     15934016 |xxxxxxxxxxxxx |xxxxxxxxxxxxx |xxxxxxxxxxxxx |xxxxxxxxxxxxx |     33983473 |     33983473 |     33983473 |xxxxxxxxxxxxx |xxxxxxxxxxxxx |xxxxxxxxxxxxx |xxxxxxxxxxxxx |    104798752 |    104798752 |    104798752 |xxxxxxxxxxxxx |xxxxxxxxxxxxx |xxxxxxxxxxxxx |xxxxxxxxxxxxx |    261999696 |    261999696 |    261999696 |
bpred_bimod.updates                          75993 |        75993 |        75993 |xxxxxxxxxxxxx |xxxxxxxxxxxxx |xxxxxxxxxxxxx |xxxxxxxxxxxxx |       167560 |       167560 |       167560 |xxxxxxxxxxxxx |xxxxxxxxxxxxx |xxxxxxxxxxxxx |xxxxxxxxxxxxx |       358946 |       358946 |       358946 |xxxxxxxxxxxxx |xxxxxxxxxxxxx |xxxxxxxxxxxxx |xxxxxxxxxxxxx |       777593 |       777593 |       777593 |xxxxxxxxxxxxx |xxxxxxxxxxxxx |xxxxxxxxxxxxx |xxxxxxxxxxxxx |      1676337 |      1676337 |      1676337 |xxxxxxxxxxxxx |xxxxxxxxxxxxx |xxxxxxxxxxxxx |xxxxxxxxxxxxx |      3488550 |      3488550 |      3488550 |xxxxxxxxxxxxx |xxxxxxxxxxxxx |xxxxxxxxxxxxx |xxxxxxxxxxxxx |      7590624 |      7590624 |      7590624 |xxxxxxxxxxxxx |xxxxxxxxxxxxx |xxxxxxxxxxxxx |xxxxxxxxxxxxx |     15934016 |     15934016 |     15934016 |xxxxxxxxxxxxx |xxxxxxxxxxxxx |xxxxxxxxxxxxx |xxxxxxxxxxxxx |     33983473 |     33983473 |     33983473 |xxxxxxxxxxxxx |xxxxxxxxxxxxx |xxxxxxxxxxxxx |xxxxxxxxxxxxx |    104798752 |    104798752 |    104798752 |xxxxxxxxxxxxx |xxxxxxxxxxxxx |xxxxxxxxxxxxx |xxxxxxxxxxxxx |    261999696 |    261999696 |    261999696 |
bpred_bimod.addr_hits                        54395 |        54394 |        54394 |xxxxxxxxxxxxx |xxxxxxxxxxxxx |xxxxxxxxxxxxx |xxxxxxxxxxxxx |       121469 |       121468 |       121467 |xxxxxxxxxxxxx |xxxxxxxxxxxxx |xxxxxxxxxxxxx |xxxxxxxxxxxxx |       260495 |       260498 |       260499 |xxxxxxxxxxxxx |xxxxxxxxxxxxx |xxxxxxxxxxxxx |xxxxxxxxxxxxx |       570884 |       570884 |       570884 |xxxxxxxxxxxxx |xxxxxxxxxxxxx |xxxxxxxxxxxxx |xxxxxxxxxxxxx |      1226505 |      1226506 |      1226506 |xxxxxxxxxxxxx |xxxxxxxxxxxxx |xxxxxxxxxxxxx |xxxxxxxxxxxxx |      2515573 |      2515572 |      2515572 |xxxxxxxxxxxxx |xxxxxxxxxxxxx |xxxxxxxxxxxxx |xxxxxxxxxxxxx |      5606581 |      5606581 |      5606582 |xxxxxxxxxxxxx |xxxxxxxxxxxxx |xxxxxxxxxxxxx |xxxxxxxxxxxxx |     11666225 |     11666225 |     11666226 |xxxxxxxxxxxxx |xxxxxxxxxxxxx |xxxxxxxxxxxxx |xxxxxxxxxxxxx |     25159560 |     25159559 |     25159559 |xxxxxxxxxxxxx |xxxxxxxxxxxxx |xxxxxxxxxxxxx |xxxxxxxxxxxxx |     86216709 |     86216730 |     86216731 |xxxxxxxxxxxxx |xxxxxxxxxxxxx |xxxxxxxxxxxxx |xxxxxxxxxxxxx |    224528346 |    224528390 |    224528390 |
bpred_bimod.dir_hits                         54515 |        54511 |        54511 |xxxxxxxxxxxxx |xxxxxxxxxxxxx |xxxxxxxxxxxxx |xxxxxxxxxxxxx |       121583 |       121581 |       121580 |xxxxxxxxxxxxx |xxxxxxxxxxxxx |xxxxxxxxxxxxx |xxxxxxxxxxxxx |       260611 |       260612 |       260612 |xxxxxxxxxxxxx |xxxxxxxxxxxxx |xxxxxxxxxxxxx |xxxxxxxxxxxxx |       570997 |       570996 |       570997 |xxxxxxxxxxxxx |xxxxxxxxxxxxx |xxxxxxxxxxxxx |xxxxxxxxxxxxx |      1226625 |      1226625 |      1226626 |xxxxxxxxxxxxx |xxxxxxxxxxxxx |xxxxxxxxxxxxx |xxxxxxxxxxxxx |      2515691 |      2515688 |      2515687 |xxxxxxxxxxxxx |xxxxxxxxxxxxx |xxxxxxxxxxxxx |xxxxxxxxxxxxx |      5606696 |      5606695 |      5606696 |xxxxxxxxxxxxx |xxxxxxxxxxxxx |xxxxxxxxxxxxx |xxxxxxxxxxxxx |     11666347 |     11666346 |     11666346 |xxxxxxxxxxxxx |xxxxxxxxxxxxx |xxxxxxxxxxxxx |xxxxxxxxxxxxx |     25159674 |     25159671 |     25159670 |xxxxxxxxxxxxx |xxxxxxxxxxxxx |xxxxxxxxxxxxx |xxxxxxxxxxxxx |     86216872 |     86216891 |     86216890 |xxxxxxxxxxxxx |xxxxxxxxxxxxx |xxxxxxxxxxxxx |xxxxxxxxxxxxx |    224528511 |    224528552 |    224528550 |
bpred_bimod.misses                           21478 |        21482 |        21482 |xxxxxxxxxxxxx |xxxxxxxxxxxxx |xxxxxxxxxxxxx |xxxxxxxxxxxxx |        45977 |        45979 |        45980 |xxxxxxxxxxxxx |xxxxxxxxxxxxx |xxxxxxxxxxxxx |xxxxxxxxxxxxx |        98335 |        98334 |        98334 |xxxxxxxxxxxxx |xxxxxxxxxxxxx |xxxxxxxxxxxxx |xxxxxxxxxxxxx |       206596 |       206597 |       206596 |xxxxxxxxxxxxx |xxxxxxxxxxxxx |xxxxxxxxxxxxx |xxxxxxxxxxxxx |       449712 |       449712 |       449711 |xxxxxxxxxxxxx |xxxxxxxxxxxxx |xxxxxxxxxxxxx |xxxxxxxxxxxxx |       972859 |       972862 |       972863 |xxxxxxxxxxxxx |xxxxxxxxxxxxx |xxxxxxxxxxxxx |xxxxxxxxxxxxx |      1983928 |      1983929 |      1983928 |xxxxxxxxxxxxx |xxxxxxxxxxxxx |xxxxxxxxxxxxx |xxxxxxxxxxxxx |      4267669 |      4267670 |      4267670 |xxxxxxxxxxxxx |xxxxxxxxxxxxx |xxxxxxxxxxxxx |xxxxxxxxxxxxx |      8823799 |      8823802 |      8823803 |xxxxxxxxxxxxx |xxxxxxxxxxxxx |xxxxxxxxxxxxx |xxxxxxxxxxxxx |     18581880 |     18581861 |     18581862 |xxxxxxxxxxxxx |xxxxxxxxxxxxx |xxxxxxxxxxxxx |xxxxxxxxxxxxx |     37471185 |     37471144 |     37471146 |
bpred_bimod.jr_hits                             65 |           65 |           65 |xxxxxxxxxxxxx |xxxxxxxxxxxxx |xxxxxxxxxxxxx |xxxxxxxxxxxxx |           65 |           65 |           65 |xxxxxxxxxxxxx |xxxxxxxxxxxxx |xxxxxxxxxxxxx |xxxxxxxxxxxxx |           65 |           65 |           65 |xxxxxxxxxxxxx |xxxxxxxxxxxxx |xxxxxxxxxxxxx |xxxxxxxxxxxxx |           65 |           65 |           65 |xxxxxxxxxxxxx |xxxxxxxxxxxxx |xxxxxxxxxxxxx |xxxxxxxxxxxxx |           65 |           65 |           65 |xxxxxxxxxxxxx |xxxxxxxxxxxxx |xxxxxxxxxxxxx |xxxxxxxxxxxxx |           65 |           65 |           65 |xxxxxxxxxxxxx |xxxxxxxxxxxxx |xxxxxxxxxxxxx |xxxxxxxxxxxxx |           65 |           65 |           65 |xxxxxxxxxxxxx |xxxxxxxxxxxxx |xxxxxxxxxxxxx |xxxxxxxxxxxxx |           65 |           65 |           65 |xxxxxxxxxxxxx |xxxxxxxxxxxxx |xxxxxxxxxxxxx |xxxxxxxxxxxxx |           65 |           65 |           65 |xxxxxxxxxxxxx |xxxxxxxxxxxxx |xxxxxxxxxxxxx |xxxxxxxxxxxxx |          110 |          110 |          110 |xxxxxxxxxxxxx |xxxxxxxxxxxxx |xxxxxxxxxxxxx |xxxxxxxxxxxxx |          122 |          122 |          122 |
bpred_bimod.jr_seen                             65 |           65 |           65 |xxxxxxxxxxxxx |xxxxxxxxxxxxx |xxxxxxxxxxxxx |xxxxxxxxxxxxx |           65 |           65 |           65 |xxxxxxxxxxxxx |xxxxxxxxxxxxx |xxxxxxxxxxxxx |xxxxxxxxxxxxx |           65 |           65 |           65 |xxxxxxxxxxxxx |xxxxxxxxxxxxx |xxxxxxxxxxxxx |xxxxxxxxxxxxx |           65 |           65 |           65 |xxxxxxxxxxxxx |xxxxxxxxxxxxx |xxxxxxxxxxxxx |xxxxxxxxxxxxx |           65 |           65 |           65 |xxxxxxxxxxxxx |xxxxxxxxxxxxx |xxxxxxxxxxxxx |xxxxxxxxxxxxx |           65 |           65 |           65 |xxxxxxxxxxxxx |xxxxxxxxxxxxx |xxxxxxxxxxxxx |xxxxxxxxxxxxx |           65 |           65 |           65 |xxxxxxxxxxxxx |xxxxxxxxxxxxx |xxxxxxxxxxxxx |xxxxxxxxxxxxx |           65 |           65 |           65 |xxxxxxxxxxxxx |xxxxxxxxxxxxx |xxxxxxxxxxxxx |xxxxxxxxxxxxx |           65 |           65 |           65 |xxxxxxxxxxxxx |xxxxxxxxxxxxx |xxxxxxxxxxxxx |xxxxxxxxxxxxx |          111 |          111 |          111 |xxxxxxxxxxxxx |xxxxxxxxxxxxx |xxxxxxxxxxxxx |xxxxxxxxxxxxx |          123 |          123 |          123 |
bpred_bimod.jr_non_ras_hits.PP                   0 |            0 |            0 |xxxxxxxxxxxxx |xxxxxxxxxxxxx |xxxxxxxxxxxxx |xxxxxxxxxxxxx |            0 |            0 |            0 |xxxxxxxxxxxxx |xxxxxxxxxxxxx |xxxxxxxxxxxxx |xxxxxxxxxxxxx |            0 |            0 |            0 |xxxxxxxxxxxxx |xxxxxxxxxxxxx |xxxxxxxxxxxxx |xxxxxxxxxxxxx |            0 |            0 |            0 |xxxxxxxxxxxxx |xxxxxxxxxxxxx |xxxxxxxxxxxxx |xxxxxxxxxxxxx |            0 |            0 |            0 |xxxxxxxxxxxxx |xxxxxxxxxxxxx |xxxxxxxxxxxxx |xxxxxxxxxxxxx |            0 |            0 |            0 |xxxxxxxxxxxxx |xxxxxxxxxxxxx |xxxxxxxxxxxxx |xxxxxxxxxxxxx |            0 |            0 |            0 |xxxxxxxxxxxxx |xxxxxxxxxxxxx |xxxxxxxxxxxxx |xxxxxxxxxxxxx |            0 |            0 |            0 |xxxxxxxxxxxxx |xxxxxxxxxxxxx |xxxxxxxxxxxxx |xxxxxxxxxxxxx |            0 |            0 |            0 |xxxxxxxxxxxxx |xxxxxxxxxxxxx |xxxxxxxxxxxxx |xxxxxxxxxxxxx |            0 |            0 |            0 |xxxxxxxxxxxxx |xxxxxxxxxxxxx |xxxxxxxxxxxxx |xxxxxxxxxxxxx |            0 |            0 |            0 |
bpred_bimod.jr_non_ras_seen.PP                   0 |            0 |            0 |xxxxxxxxxxxxx |xxxxxxxxxxxxx |xxxxxxxxxxxxx |xxxxxxxxxxxxx |            0 |            0 |            0 |xxxxxxxxxxxxx |xxxxxxxxxxxxx |xxxxxxxxxxxxx |xxxxxxxxxxxxx |            0 |            0 |            0 |xxxxxxxxxxxxx |xxxxxxxxxxxxx |xxxxxxxxxxxxx |xxxxxxxxxxxxx |            0 |            0 |            0 |xxxxxxxxxxxxx |xxxxxxxxxxxxx |xxxxxxxxxxxxx |xxxxxxxxxxxxx |            0 |            0 |            0 |xxxxxxxxxxxxx |xxxxxxxxxxxxx |xxxxxxxxxxxxx |xxxxxxxxxxxxx |            0 |            0 |            0 |xxxxxxxxxxxxx |xxxxxxxxxxxxx |xxxxxxxxxxxxx |xxxxxxxxxxxxx |            0 |            0 |            0 |xxxxxxxxxxxxx |xxxxxxxxxxxxx |xxxxxxxxxxxxx |xxxxxxxxxxxxx |            0 |            0 |            0 |xxxxxxxxxxxxx |xxxxxxxxxxxxx |xxxxxxxxxxxxx |xxxxxxxxxxxxx |            0 |            0 |            0 |xxxxxxxxxxxxx |xxxxxxxxxxxxx |xxxxxxxxxxxxx |xxxxxxxxxxxxx |            1 |            1 |            1 |xxxxxxxxxxxxx |xxxxxxxxxxxxx |xxxxxxxxxxxxx |xxxxxxxxxxxxx |            1 |            1 |            1 |
bpred_bimod.bpred_addr_rate                 0.7158 |       0.7158 |       0.7158 |xxxxxxxxxxxxx |xxxxxxxxxxxxx |xxxxxxxxxxxxx |xxxxxxxxxxxxx |       0.7249 |       0.7249 |       0.7249 |xxxxxxxxxxxxx |xxxxxxxxxxxxx |xxxxxxxxxxxxx |xxxxxxxxxxxxx |       0.7257 |       0.7257 |       0.7257 |xxxxxxxxxxxxx |xxxxxxxxxxxxx |xxxxxxxxxxxxx |xxxxxxxxxxxxx |       0.7342 |       0.7342 |       0.7342 |xxxxxxxxxxxxx |xxxxxxxxxxxxx |xxxxxxxxxxxxx |xxxxxxxxxxxxx |       0.7317 |       0.7317 |       0.7317 |xxxxxxxxxxxxx |xxxxxxxxxxxxx |xxxxxxxxxxxxx |xxxxxxxxxxxxx |       0.7211 |       0.7211 |       0.7211 |xxxxxxxxxxxxx |xxxxxxxxxxxxx |xxxxxxxxxxxxx |xxxxxxxxxxxxx |       0.7386 |       0.7386 |       0.7386 |xxxxxxxxxxxxx |xxxxxxxxxxxxx |xxxxxxxxxxxxx |xxxxxxxxxxxxx |       0.7322 |       0.7322 |       0.7322 |xxxxxxxxxxxxx |xxxxxxxxxxxxx |xxxxxxxxxxxxx |xxxxxxxxxxxxx |       0.7403 |       0.7403 |       0.7403 |xxxxxxxxxxxxx |xxxxxxxxxxxxx |xxxxxxxxxxxxx |xxxxxxxxxxxxx |       0.8227 |       0.8227 |       0.8227 |xxxxxxxxxxxxx |xxxxxxxxxxxxx |xxxxxxxxxxxxx |xxxxxxxxxxxxx |       0.8570 |       0.8570 |       0.8570 |
bpred_bimod.bpred_dir_rate                  0.7174 |       0.7173 |       0.7173 |xxxxxxxxxxxxx |xxxxxxxxxxxxx |xxxxxxxxxxxxx |xxxxxxxxxxxxx |       0.7256 |       0.7256 |       0.7256 |xxxxxxxxxxxxx |xxxxxxxxxxxxx |xxxxxxxxxxxxx |xxxxxxxxxxxxx |       0.7260 |       0.7260 |       0.7260 |xxxxxxxxxxxxx |xxxxxxxxxxxxx |xxxxxxxxxxxxx |xxxxxxxxxxxxx |       0.7343 |       0.7343 |       0.7343 |xxxxxxxxxxxxx |xxxxxxxxxxxxx |xxxxxxxxxxxxx |xxxxxxxxxxxxx |       0.7317 |       0.7317 |       0.7317 |xxxxxxxxxxxxx |xxxxxxxxxxxxx |xxxxxxxxxxxxx |xxxxxxxxxxxxx |       0.7211 |       0.7211 |       0.7211 |xxxxxxxxxxxxx |xxxxxxxxxxxxx |xxxxxxxxxxxxx |xxxxxxxxxxxxx |       0.7386 |       0.7386 |       0.7386 |xxxxxxxxxxxxx |xxxxxxxxxxxxx |xxxxxxxxxxxxx |xxxxxxxxxxxxx |       0.7322 |       0.7322 |       0.7322 |xxxxxxxxxxxxx |xxxxxxxxxxxxx |xxxxxxxxxxxxx |xxxxxxxxxxxxx |       0.7404 |       0.7404 |       0.7404 |xxxxxxxxxxxxx |xxxxxxxxxxxxx |xxxxxxxxxxxxx |xxxxxxxxxxxxx |       0.8227 |       0.8227 |       0.8227 |xxxxxxxxxxxxx |xxxxxxxxxxxxx |xxxxxxxxxxxxx |xxxxxxxxxxxxx |       0.8570 |       0.8570 |       0.8570 |
bpred_bimod.bpred_jr_rate                   1.0000 |       1.0000 |       1.0000 |xxxxxxxxxxxxx |xxxxxxxxxxxxx |xxxxxxxxxxxxx |xxxxxxxxxxxxx |       1.0000 |       1.0000 |       1.0000 |xxxxxxxxxxxxx |xxxxxxxxxxxxx |xxxxxxxxxxxxx |xxxxxxxxxxxxx |       1.0000 |       1.0000 |       1.0000 |xxxxxxxxxxxxx |xxxxxxxxxxxxx |xxxxxxxxxxxxx |xxxxxxxxxxxxx |       1.0000 |       1.0000 |       1.0000 |xxxxxxxxxxxxx |xxxxxxxxxxxxx |xxxxxxxxxxxxx |xxxxxxxxxxxxx |       1.0000 |       1.0000 |       1.0000 |xxxxxxxxxxxxx |xxxxxxxxxxxxx |xxxxxxxxxxxxx |xxxxxxxxxxxxx |       1.0000 |       1.0000 |       1.0000 |xxxxxxxxxxxxx |xxxxxxxxxxxxx |xxxxxxxxxxxxx |xxxxxxxxxxxxx |       1.0000 |       1.0000 |       1.0000 |xxxxxxxxxxxxx |xxxxxxxxxxxxx |xxxxxxxxxxxxx |xxxxxxxxxxxxx |       1.0000 |       1.0000 |       1.0000 |xxxxxxxxxxxxx |xxxxxxxxxxxxx |xxxxxxxxxxxxx |xxxxxxxxxxxxx |       1.0000 |       1.0000 |       1.0000 |xxxxxxxxxxxxx |xxxxxxxxxxxxx |xxxxxxxxxxxxx |xxxxxxxxxxxxx |       0.9910 |       0.9910 |       0.9910 |xxxxxxxxxxxxx |xxxxxxxxxxxxx |xxxxxxxxxxxxx |xxxxxxxxxxxxx |       0.9919 |       0.9919 |       0.9919 |
bpred_bimod.bpred_jr_non_ras_rate.PP       <error: |      <error: |      <error: |xxxxxxxxxxxxx |xxxxxxxxxxxxx |xxxxxxxxxxxxx |xxxxxxxxxxxxx |      <error: |      <error: |      <error: |xxxxxxxxxxxxx |xxxxxxxxxxxxx |xxxxxxxxxxxxx |xxxxxxxxxxxxx |      <error: |      <error: |      <error: |xxxxxxxxxxxxx |xxxxxxxxxxxxx |xxxxxxxxxxxxx |xxxxxxxxxxxxx |      <error: |      <error: |      <error: |xxxxxxxxxxxxx |xxxxxxxxxxxxx |xxxxxxxxxxxxx |xxxxxxxxxxxxx |      <error: |      <error: |      <error: |xxxxxxxxxxxxx |xxxxxxxxxxxxx |xxxxxxxxxxxxx |xxxxxxxxxxxxx |      <error: |      <error: |      <error: |xxxxxxxxxxxxx |xxxxxxxxxxxxx |xxxxxxxxxxxxx |xxxxxxxxxxxxx |      <error: |      <error: |      <error: |xxxxxxxxxxxxx |xxxxxxxxxxxxx |xxxxxxxxxxxxx |xxxxxxxxxxxxx |      <error: |      <error: |      <error: |xxxxxxxxxxxxx |xxxxxxxxxxxxx |xxxxxxxxxxxxx |xxxxxxxxxxxxx |      <error: |      <error: |      <error: |xxxxxxxxxxxxx |xxxxxxxxxxxxx |xxxxxxxxxxxxx |xxxxxxxxxxxxx |       0.0000 |       0.0000 |       0.0000 |xxxxxxxxxxxxx |xxxxxxxxxxxxx |xxxxxxxxxxxxx |xxxxxxxxxxxxx |       0.0000 |       0.0000 |       0.0000 |
bpred_bimod.retstack_pushes                     67 |           67 |           67 |xxxxxxxxxxxxx |xxxxxxxxxxxxx |xxxxxxxxxxxxx |xxxxxxxxxxxxx |           67 |           67 |           67 |xxxxxxxxxxxxx |xxxxxxxxxxxxx |xxxxxxxxxxxxx |xxxxxxxxxxxxx |           67 |           67 |           67 |xxxxxxxxxxxxx |xxxxxxxxxxxxx |xxxxxxxxxxxxx |xxxxxxxxxxxxx |           67 |           67 |           67 |xxxxxxxxxxxxx |xxxxxxxxxxxxx |xxxxxxxxxxxxx |xxxxxxxxxxxxx |           67 |           67 |           67 |xxxxxxxxxxxxx |xxxxxxxxxxxxx |xxxxxxxxxxxxx |xxxxxxxxxxxxx |           67 |           67 |           67 |xxxxxxxxxxxxx |xxxxxxxxxxxxx |xxxxxxxxxxxxx |xxxxxxxxxxxxx |           67 |           67 |           67 |xxxxxxxxxxxxx |xxxxxxxxxxxxx |xxxxxxxxxxxxx |xxxxxxxxxxxxx |           67 |           67 |           67 |xxxxxxxxxxxxx |xxxxxxxxxxxxx |xxxxxxxxxxxxx |xxxxxxxxxxxxx |           67 |           67 |           67 |xxxxxxxxxxxxx |xxxxxxxxxxxxx |xxxxxxxxxxxxx |xxxxxxxxxxxxx |          112 |          112 |          112 |xxxxxxxxxxxxx |xxxxxxxxxxxxx |xxxxxxxxxxxxx |xxxxxxxxxxxxx |          124 |          124 |          124 |
bpred_bimod.retstack_pops                       65 |           65 |           65 |xxxxxxxxxxxxx |xxxxxxxxxxxxx |xxxxxxxxxxxxx |xxxxxxxxxxxxx |           65 |           65 |           65 |xxxxxxxxxxxxx |xxxxxxxxxxxxx |xxxxxxxxxxxxx |xxxxxxxxxxxxx |           65 |           65 |           65 |xxxxxxxxxxxxx |xxxxxxxxxxxxx |xxxxxxxxxxxxx |xxxxxxxxxxxxx |           65 |           65 |           65 |xxxxxxxxxxxxx |xxxxxxxxxxxxx |xxxxxxxxxxxxx |xxxxxxxxxxxxx |           65 |           65 |           65 |xxxxxxxxxxxxx |xxxxxxxxxxxxx |xxxxxxxxxxxxx |xxxxxxxxxxxxx |           65 |           65 |           65 |xxxxxxxxxxxxx |xxxxxxxxxxxxx |xxxxxxxxxxxxx |xxxxxxxxxxxxx |           65 |           65 |           65 |xxxxxxxxxxxxx |xxxxxxxxxxxxx |xxxxxxxxxxxxx |xxxxxxxxxxxxx |           65 |           65 |           65 |xxxxxxxxxxxxx |xxxxxxxxxxxxx |xxxxxxxxxxxxx |xxxxxxxxxxxxx |           65 |           65 |           65 |xxxxxxxxxxxxx |xxxxxxxxxxxxx |xxxxxxxxxxxxx |xxxxxxxxxxxxx |          110 |          110 |          110 |xxxxxxxxxxxxx |xxxxxxxxxxxxx |xxxxxxxxxxxxx |xxxxxxxxxxxxx |          122 |          122 |          122 |
bpred_bimod.used_ras.PP                         65 |           65 |           65 |xxxxxxxxxxxxx |xxxxxxxxxxxxx |xxxxxxxxxxxxx |xxxxxxxxxxxxx |           65 |           65 |           65 |xxxxxxxxxxxxx |xxxxxxxxxxxxx |xxxxxxxxxxxxx |xxxxxxxxxxxxx |           65 |           65 |           65 |xxxxxxxxxxxxx |xxxxxxxxxxxxx |xxxxxxxxxxxxx |xxxxxxxxxxxxx |           65 |           65 |           65 |xxxxxxxxxxxxx |xxxxxxxxxxxxx |xxxxxxxxxxxxx |xxxxxxxxxxxxx |           65 |           65 |           65 |xxxxxxxxxxxxx |xxxxxxxxxxxxx |xxxxxxxxxxxxx |xxxxxxxxxxxxx |           65 |           65 |           65 |xxxxxxxxxxxxx |xxxxxxxxxxxxx |xxxxxxxxxxxxx |xxxxxxxxxxxxx |           65 |           65 |           65 |xxxxxxxxxxxxx |xxxxxxxxxxxxx |xxxxxxxxxxxxx |xxxxxxxxxxxxx |           65 |           65 |           65 |xxxxxxxxxxxxx |xxxxxxxxxxxxx |xxxxxxxxxxxxx |xxxxxxxxxxxxx |           65 |           65 |           65 |xxxxxxxxxxxxx |xxxxxxxxxxxxx |xxxxxxxxxxxxx |xxxxxxxxxxxxx |          110 |          110 |          110 |xxxxxxxxxxxxx |xxxxxxxxxxxxx |xxxxxxxxxxxxx |xxxxxxxxxxxxx |          122 |          122 |          122 |
bpred_bimod.ras_hits.PP                         65 |           65 |           65 |xxxxxxxxxxxxx |xxxxxxxxxxxxx |xxxxxxxxxxxxx |xxxxxxxxxxxxx |           65 |           65 |           65 |xxxxxxxxxxxxx |xxxxxxxxxxxxx |xxxxxxxxxxxxx |xxxxxxxxxxxxx |           65 |           65 |           65 |xxxxxxxxxxxxx |xxxxxxxxxxxxx |xxxxxxxxxxxxx |xxxxxxxxxxxxx |           65 |           65 |           65 |xxxxxxxxxxxxx |xxxxxxxxxxxxx |xxxxxxxxxxxxx |xxxxxxxxxxxxx |           65 |           65 |           65 |xxxxxxxxxxxxx |xxxxxxxxxxxxx |xxxxxxxxxxxxx |xxxxxxxxxxxxx |           65 |           65 |           65 |xxxxxxxxxxxxx |xxxxxxxxxxxxx |xxxxxxxxxxxxx |xxxxxxxxxxxxx |           65 |           65 |           65 |xxxxxxxxxxxxx |xxxxxxxxxxxxx |xxxxxxxxxxxxx |xxxxxxxxxxxxx |           65 |           65 |           65 |xxxxxxxxxxxxx |xxxxxxxxxxxxx |xxxxxxxxxxxxx |xxxxxxxxxxxxx |           65 |           65 |           65 |xxxxxxxxxxxxx |xxxxxxxxxxxxx |xxxxxxxxxxxxx |xxxxxxxxxxxxx |          110 |          110 |          110 |xxxxxxxxxxxxx |xxxxxxxxxxxxx |xxxxxxxxxxxxx |xxxxxxxxxxxxx |          122 |          122 |          122 |
bpred_bimod.ras_rate.PP                     1.0000 |       1.0000 |       1.0000 |xxxxxxxxxxxxx |xxxxxxxxxxxxx |xxxxxxxxxxxxx |xxxxxxxxxxxxx |       1.0000 |       1.0000 |       1.0000 |xxxxxxxxxxxxx |xxxxxxxxxxxxx |xxxxxxxxxxxxx |xxxxxxxxxxxxx |       1.0000 |       1.0000 |       1.0000 |xxxxxxxxxxxxx |xxxxxxxxxxxxx |xxxxxxxxxxxxx |xxxxxxxxxxxxx |       1.0000 |       1.0000 |       1.0000 |xxxxxxxxxxxxx |xxxxxxxxxxxxx |xxxxxxxxxxxxx |xxxxxxxxxxxxx |       1.0000 |       1.0000 |       1.0000 |xxxxxxxxxxxxx |xxxxxxxxxxxxx |xxxxxxxxxxxxx |xxxxxxxxxxxxx |       1.0000 |       1.0000 |       1.0000 |xxxxxxxxxxxxx |xxxxxxxxxxxxx |xxxxxxxxxxxxx |xxxxxxxxxxxxx |       1.0000 |       1.0000 |       1.0000 |xxxxxxxxxxxxx |xxxxxxxxxxxxx |xxxxxxxxxxxxx |xxxxxxxxxxxxx |       1.0000 |       1.0000 |       1.0000 |xxxxxxxxxxxxx |xxxxxxxxxxxxx |xxxxxxxxxxxxx |xxxxxxxxxxxxx |       1.0000 |       1.0000 |       1.0000 |xxxxxxxxxxxxx |xxxxxxxxxxxxx |xxxxxxxxxxxxx |xxxxxxxxxxxxx |       1.0000 |       1.0000 |       1.0000 |xxxxxxxxxxxxx |xxxxxxxxxxxxx |xxxxxxxxxxxxx |xxxxxxxxxxxxx |       1.0000 |       1.0000 |       1.0000 |
bpred_2lev.lookups                   xxxxxxxxxxxxx |xxxxxxxxxxxxx |xxxxxxxxxxxxx |        75993 |        75993 |        75993 |        75993 |xxxxxxxxxxxxx |xxxxxxxxxxxxx |xxxxxxxxxxxxx |       167560 |       167560 |       167560 |       167560 |xxxxxxxxxxxxx |xxxxxxxxxxxxx |xxxxxxxxxxxxx |       358946 |       358946 |       358946 |       358946 |xxxxxxxxxxxxx |xxxxxxxxxxxxx |xxxxxxxxxxxxx |       777593 |       777593 |       777593 |       777593 |xxxxxxxxxxxxx |xxxxxxxxxxxxx |xxxxxxxxxxxxx |      1676337 |      1676337 |      1676337 |      1676337 |xxxxxxxxxxxxx |xxxxxxxxxxxxx |xxxxxxxxxxxxx |      3488550 |      3488550 |      3488550 |      3488550 |xxxxxxxxxxxxx |xxxxxxxxxxxxx |xxxxxxxxxxxxx |      7590624 |      7590624 |      7590624 |      7590624 |xxxxxxxxxxxxx |xxxxxxxxxxxxx |xxxxxxxxxxxxx |     15934016 |     15934016 |     15934016 |     15934016 |xxxxxxxxxxxxx |xxxxxxxxxxxxx |xxxxxxxxxxxxx |     33983473 |     33983473 |     33983473 |     33983473 |xxxxxxxxxxxxx |xxxxxxxxxxxxx |xxxxxxxxxxxxx |    104798752 |    104798752 |    104798752 |    104798752 |xxxxxxxxxxxxx |xxxxxxxxxxxxx |xxxxxxxxxxxxx |    261999696 |    261999696 |    261999696 |    261999696 |
[...]
bpred_2lev.retstack_pushes           xxxxxxxxxxxxx |xxxxxxxxxxxxx |xxxxxxxxxxxxx |           67 |           67 |           67 |           67 |xxxxxxxxxxxxx |xxxxxxxxxxxxx |xxxxxxxxxxxxx |           67 |           67 |           67 |           67 |xxxxxxxxxxxxx |xxxxxxxxxxxxx |xxxxxxxxxxxxx |           67 |           67 |           67 |           67 |xxxxxxxxxxxxx |xxxxxxxxxxxxx |xxxxxxxxxxxxx |           67 |           67 |           67 |           67 |xxxxxxxxxxxxx |xxxxxxxxxxxxx |xxxxxxxxxxxxx |           67 |           67 |           67 |           67 |xxxxxxxxxxxxx |xxxxxxxxxxxxx |xxxxxxxxxxxxx |           67 |           67 |           67 |           67 |xxxxxxxxxxxxx |xxxxxxxxxxxxx |xxxxxxxxxxxxx |           67 |           67 |           67 |           67 |xxxxxxxxxxxxx |xxxxxxxxxxxxx |xxxxxxxxxxxxx |           67 |           67 |           67 |           67 |xxxxxxxxxxxxx |xxxxxxxxxxxxx |xxxxxxxxxxxxx |           67 |           67 |           67 |           67 |xxxxxxxxxxxxx |xxxxxxxxxxxxx |xxxxxxxxxxxxx |          112 |          112 |          112 |          112 |xxxxxxxxxxxxx |xxxxxxxxxxxxx |xxxxxxxxxxxxx |          124 |          124 |          124 |          124 |
bpred_2lev.retstack_pops             xxxxxxxxxxxxx |xxxxxxxxxxxxx |xxxxxxxxxxxxx |           65 |           65 |           65 |           65 |xxxxxxxxxxxxx |xxxxxxxxxxxxx |xxxxxxxxxxxxx |           65 |           65 |           65 |           65 |xxxxxxxxxxxxx |xxxxxxxxxxxxx |xxxxxxxxxxxxx |           65 |           65 |           65 |           65 |xxxxxxxxxxxxx |xxxxxxxxxxxxx |xxxxxxxxxxxxx |           65 |           65 |           65 |           65 |xxxxxxxxxxxxx |xxxxxxxxxxxxx |xxxxxxxxxxxxx |           65 |           65 |           65 |           65 |xxxxxxxxxxxxx |xxxxxxxxxxxxx |xxxxxxxxxxxxx |           65 |           65 |           65 |           65 |xxxxxxxxxxxxx |xxxxxxxxxxxxx |xxxxxxxxxxxxx |           65 |           65 |           65 |           65 |xxxxxxxxxxxxx |xxxxxxxxxxxxx |xxxxxxxxxxxxx |           65 |           65 |           65 |           65 |xxxxxxxxxxxxx |xxxxxxxxxxxxx |xxxxxxxxxxxxx |           65 |           65 |           65 |           65 |xxxxxxxxxxxxx |xxxxxxxxxxxxx |xxxxxxxxxxxxx |          110 |          110 |          110 |          110 |xxxxxxxxxxxxx |xxxxxxxxxxxxx |xxxxxxxxxxxxx |          122 |          122 |          122 |          122 |
bpred_2lev.used_ras.PP               xxxxxxxxxxxxx |xxxxxxxxxxxxx |xxxxxxxxxxxxx |           65 |           65 |           65 |           65 |xxxxxxxxxxxxx |xxxxxxxxxxxxx |xxxxxxxxxxxxx |           65 |           65 |           65 |           65 |xxxxxxxxxxxxx |xxxxxxxxxxxxx |xxxxxxxxxxxxx |           65 |           65 |           65 |           65 |xxxxxxxxxxxxx |xxxxxxxxxxxxx |xxxxxxxxxxxxx |           65 |           65 |           65 |           65 |xxxxxxxxxxxxx |xxxxxxxxxxxxx |xxxxxxxxxxxxx |           65 |           65 |           65 |           65 |xxxxxxxxxxxxx |xxxxxxxxxxxxx |xxxxxxxxxxxxx |           65 |           65 |           65 |           65 |xxxxxxxxxxxxx |xxxxxxxxxxxxx |xxxxxxxxxxxxx |           65 |           65 |           65 |           65 |xxxxxxxxxxxxx |xxxxxxxxxxxxx |xxxxxxxxxxxxx |           65 |           65 |           65 |           65 |xxxxxxxxxxxxx |xxxxxxxxxxxxx |xxxxxxxxxxxxx |           65 |           65 |           65 |           65 |xxxxxxxxxxxxx |xxxxxxxxxxxxx |xxxxxxxxxxxxx |          110 |          110 |          110 |          110 |xxxxxxxxxxxxx |xxxxxxxxxxxxx |xxxxxxxxxxxxx |          122 |          122 |          122 |          122 |
bpred_2lev.ras_hits.PP               xxxxxxxxxxxxx |xxxxxxxxxxxxx |xxxxxxxxxxxxx |           65 |           65 |           65 |           65 |xxxxxxxxxxxxx |xxxxxxxxxxxxx |xxxxxxxxxxxxx |           65 |           65 |           65 |           65 |xxxxxxxxxxxxx |xxxxxxxxxxxxx |xxxxxxxxxxxxx |           65 |           65 |           65 |           65 |xxxxxxxxxxxxx |xxxxxxxxxxxxx |xxxxxxxxxxxxx |           65 |           65 |           65 |           65 |xxxxxxxxxxxxx |xxxxxxxxxxxxx |xxxxxxxxxxxxx |           65 |           65 |           65 |           65 |xxxxxxxxxxxxx |xxxxxxxxxxxxx |xxxxxxxxxxxxx |           65 |           65 |           65 |           65 |xxxxxxxxxxxxx |xxxxxxxxxxxxx |xxxxxxxxxxxxx |           65 |           65 |           65 |           65 |xxxxxxxxxxxxx |xxxxxxxxxxxxx |xxxxxxxxxxxxx |           65 |           65 |           65 |           65 |xxxxxxxxxxxxx |xxxxxxxxxxxxx |xxxxxxxxxxxxx |           65 |           65 |           65 |           65 |xxxxxxxxxxxxx |xxxxxxxxxxxxx |xxxxxxxxxxxxx |          110 |          110 |          110 |          110 |xxxxxxxxxxxxx |xxxxxxxxxxxxx |xxxxxxxxxxxxx |          122 |          122 |          122 |          122 |
bpred_2lev.ras_rate.PP               xxxxxxxxxxxxx |xxxxxxxxxxxxx |xxxxxxxxxxxxx |       1.0000 |       1.0000 |       1.0000 |       1.0000 |xxxxxxxxxxxxx |xxxxxxxxxxxxx |xxxxxxxxxxxxx |       1.0000 |       1.0000 |       1.0000 |       1.0000 |xxxxxxxxxxxxx |xxxxxxxxxxxxx |xxxxxxxxxxxxx |       1.0000 |       1.0000 |       1.0000 |       1.0000 |xxxxxxxxxxxxx |xxxxxxxxxxxxx |xxxxxxxxxxxxx |       1.0000 |       1.0000 |       1.0000 |       1.0000 |xxxxxxxxxxxxx |xxxxxxxxxxxxx |xxxxxxxxxxxxx |       1.0000 |       1.0000 |       1.0000 |       1.0000 |xxxxxxxxxxxxx |xxxxxxxxxxxxx |xxxxxxxxxxxxx |       1.0000 |       1.0000 |       1.0000 |       1.0000 |xxxxxxxxxxxxx |xxxxxxxxxxxxx |xxxxxxxxxxxxx |       1.0000 |       1.0000 |       1.0000 |       1.0000 |xxxxxxxxxxxxx |xxxxxxxxxxxxx |xxxxxxxxxxxxx |       1.0000 |       1.0000 |       1.0000 |       1.0000 |xxxxxxxxxxxxx |xxxxxxxxxxxxx |xxxxxxxxxxxxx |       1.0000 |       1.0000 |       1.0000 |       1.0000 |xxxxxxxxxxxxx |xxxxxxxxxxxxx |xxxxxxxxxxxxx |       1.0000 |       1.0000 |       1.0000 |       1.0000 |xxxxxxxxxxxxx |xxxxxxxxxxxxx |xxxxxxxxxxxxx |       1.0000 |       1.0000 |       1.0000 |       1.0000 |

Command list: 
	sslittle-na-sstrix-gcc -Wall -O3 -funroll-loops -finline-functions  -DRANDOM_SIZE=4096 -DOFFSET=0 -DSORT=multi_quicksort_seq sorts/multi_quicksort_seq2073362569.c simpleMain.c -o multi_quicksort_seq922729023
	sim-cache -cache:dl1 dl1:256:32:1:l -cache:dl2 dl2:131072:32:1:l -cache:il1 il1:256:32:1:l -cache:il2 dl2 multi_quicksort_seq922729023
	sim-cache -cache:dl1 dl1:256:32:1:l -cache:dl2 dl2:65536:32:1:l -cache:il1 il1:256:32:1:l -cache:il2 dl2 multi_quicksort_seq922729023
	sim-cache -cache:dl1 dl1:1:32:256:l -cache:dl2 dl2:1:32:131072:l -cache:il1 il1:1:32:256:l -cache:il2 dl2 multi_quicksort_seq922729023
	sim-cache -cache:dl1 dl1:1:32:256:l -cache:dl2 dl2:1:32:65536:l -cache:il1 il1:1:32:256:l -cache:il2 dl2 multi_quicksort_seq922729023
	sim-bpred -bpred bimod -bpred:bimod 512 multi_quicksort_seq922729023
	sim-bpred -bpred bimod -bpred:bimod 1024 multi_quicksort_seq922729023
	sim-bpred -bpred bimod -bpred:bimod 2048 multi_quicksort_seq922729023
	sim-bpred -bpred 2lev -bpred:2lev 1 512 10 1 multi_quicksort_seq922729023
	sim-bpred -bpred 2lev -bpred:2lev 1 1024 10 1 multi_quicksort_seq922729023
	sim-bpred -bpred 2lev -bpred:2lev 1 2048 10 1 multi_quicksort_seq922729023
	sim-bpred -bpred 2lev -bpred:2lev 1 4096 10 1 multi_quicksort_seq922729023
	sslittle-na-sstrix-gcc -Wall -O3 -funroll-loops -finline-functions  -DRANDOM_SIZE=8192 -DOFFSET=0 -DSORT=multi_quicksort_seq sorts/multi_quicksort_seq2073362569.c simpleMain.c -o multi_quicksort_seq922729023
	sim-cache -cache:dl1 dl1:256:32:1:l -cache:dl2 dl2:131072:32:1:l -cache:il1 il1:256:32:1:l -cache:il2 dl2 multi_quicksort_seq922729023
	sim-cache -cache:dl1 dl1:256:32:1:l -cache:dl2 dl2:65536:32:1:l -cache:il1 il1:256:32:1:l -cache:il2 dl2 multi_quicksort_seq922729023
	sim-cache -cache:dl1 dl1:1:32:256:l -cache:dl2 dl2:1:32:131072:l -cache:il1 il1:1:32:256:l -cache:il2 dl2 multi_quicksort_seq922729023
	sim-cache -cache:dl1 dl1:1:32:256:l -cache:dl2 dl2:1:32:65536:l -cache:il1 il1:1:32:256:l -cache:il2 dl2 multi_quicksort_seq922729023
	sim-bpred -bpred bimod -bpred:bimod 512 multi_quicksort_seq922729023
	sim-bpred -bpred bimod -bpred:bimod 1024 multi_quicksort_seq922729023
	sim-bpred -bpred bimod -bpred:bimod 2048 multi_quicksort_seq922729023
	sim-bpred -bpred 2lev -bpred:2lev 1 512 10 1 multi_quicksort_seq922729023
	sim-bpred -bpred 2lev -bpred:2lev 1 1024 10 1 multi_quicksort_seq922729023
	sim-bpred -bpred 2lev -bpred:2lev 1 2048 10 1 multi_quicksort_seq922729023
	sim-bpred -bpred 2lev -bpred:2lev 1 4096 10 1 multi_quicksort_seq922729023
	sslittle-na-sstrix-gcc -Wall -O3 -funroll-loops -finline-functions  -DRANDOM_SIZE=16384 -DOFFSET=0 -DSORT=multi_quicksort_seq sorts/multi_quicksort_seq2073362569.c simpleMain.c -o multi_quicksort_seq922729023
	sim-cache -cache:dl1 dl1:256:32:1:l -cache:dl2 dl2:131072:32:1:l -cache:il1 il1:256:32:1:l -cache:il2 dl2 multi_quicksort_seq922729023
	sim-cache -cache:dl1 dl1:256:32:1:l -cache:dl2 dl2:65536:32:1:l -cache:il1 il1:256:32:1:l -cache:il2 dl2 multi_quicksort_seq922729023
	sim-cache -cache:dl1 dl1:1:32:256:l -cache:dl2 dl2:1:32:131072:l -cache:il1 il1:1:32:256:l -cache:il2 dl2 multi_quicksort_seq922729023
	sim-cache -cache:dl1 dl1:1:32:256:l -cache:dl2 dl2:1:32:65536:l -cache:il1 il1:1:32:256:l -cache:il2 dl2 multi_quicksort_seq922729023
	sim-bpred -bpred bimod -bpred:bimod 512 multi_quicksort_seq922729023
	sim-bpred -bpred bimod -bpred:bimod 1024 multi_quicksort_seq922729023
	sim-bpred -bpred bimod -bpred:bimod 2048 multi_quicksort_seq922729023
	sim-bpred -bpred 2lev -bpred:2lev 1 512 10 1 multi_quicksort_seq922729023
	sim-bpred -bpred 2lev -bpred:2lev 1 1024 10 1 multi_quicksort_seq922729023
	sim-bpred -bpred 2lev -bpred:2lev 1 2048 10 1 multi_quicksort_seq922729023
	sim-bpred -bpred 2lev -bpred:2lev 1 4096 10 1 multi_quicksort_seq922729023
	sslittle-na-sstrix-gcc -Wall -O3 -funroll-loops -finline-functions  -DRANDOM_SIZE=32768 -DOFFSET=0 -DSORT=multi_quicksort_seq sorts/multi_quicksort_seq2073362569.c simpleMain.c -o multi_quicksort_seq922729023
	sim-cache -cache:dl1 dl1:256:32:1:l -cache:dl2 dl2:131072:32:1:l -cache:il1 il1:256:32:1:l -cache:il2 dl2 multi_quicksort_seq922729023
	sim-cache -cache:dl1 dl1:256:32:1:l -cache:dl2 dl2:65536:32:1:l -cache:il1 il1:256:32:1:l -cache:il2 dl2 multi_quicksort_seq922729023
	sim-cache -cache:dl1 dl1:1:32:256:l -cache:dl2 dl2:1:32:131072:l -cache:il1 il1:1:32:256:l -cache:il2 dl2 multi_quicksort_seq922729023
	sim-cache -cache:dl1 dl1:1:32:256:l -cache:dl2 dl2:1:32:65536:l -cache:il1 il1:1:32:256:l -cache:il2 dl2 multi_quicksort_seq922729023
	sim-bpred -bpred bimod -bpred:bimod 512 multi_quicksort_seq922729023
	sim-bpred -bpred bimod -bpred:bimod 1024 multi_quicksort_seq922729023
	sim-bpred -bpred bimod -bpred:bimod 2048 multi_quicksort_seq922729023
	sim-bpred -bpred 2lev -bpred:2lev 1 512 10 1 multi_quicksort_seq922729023
	sim-bpred -bpred 2lev -bpred:2lev 1 1024 10 1 multi_quicksort_seq922729023
	sim-bpred -bpred 2lev -bpred:2lev 1 2048 10 1 multi_quicksort_seq922729023
	sim-bpred -bpred 2lev -bpred:2lev 1 4096 10 1 multi_quicksort_seq922729023
	sslittle-na-sstrix-gcc -Wall -O3 -funroll-loops -finline-functions  -DRANDOM_SIZE=65536 -DOFFSET=0 -DSORT=multi_quicksort_seq sorts/multi_quicksort_seq2073362569.c simpleMain.c -o multi_quicksort_seq922729023
	sim-cache -cache:dl1 dl1:256:32:1:l -cache:dl2 dl2:131072:32:1:l -cache:il1 il1:256:32:1:l -cache:il2 dl2 multi_quicksort_seq922729023
	sim-cache -cache:dl1 dl1:256:32:1:l -cache:dl2 dl2:65536:32:1:l -cache:il1 il1:256:32:1:l -cache:il2 dl2 multi_quicksort_seq922729023
	sim-cache -cache:dl1 dl1:1:32:256:l -cache:dl2 dl2:1:32:131072:l -cache:il1 il1:1:32:256:l -cache:il2 dl2 multi_quicksort_seq922729023
	sim-cache -cache:dl1 dl1:1:32:256:l -cache:dl2 dl2:1:32:65536:l -cache:il1 il1:1:32:256:l -cache:il2 dl2 multi_quicksort_seq922729023
	sim-bpred -bpred bimod -bpred:bimod 512 multi_quicksort_seq922729023
	sim-bpred -bpred bimod -bpred:bimod 1024 multi_quicksort_seq922729023
	sim-bpred -bpred bimod -bpred:bimod 2048 multi_quicksort_seq922729023
	sim-bpred -bpred 2lev -bpred:2lev 1 512 10 1 multi_quicksort_seq922729023
	sim-bpred -bpred 2lev -bpred:2lev 1 1024 10 1 multi_quicksort_seq922729023
	sim-bpred -bpred 2lev -bpred:2lev 1 2048 10 1 multi_quicksort_seq922729023
	sim-bpred -bpred 2lev -bpred:2lev 1 4096 10 1 multi_quicksort_seq922729023
	sslittle-na-sstrix-gcc -Wall -O3 -funroll-loops -finline-functions  -DRANDOM_SIZE=131072 -DOFFSET=0 -DSORT=multi_quicksort_seq sorts/multi_quicksort_seq2073362569.c simpleMain.c -o multi_quicksort_seq922729023
	sim-cache -cache:dl1 dl1:256:32:1:l -cache:dl2 dl2:131072:32:1:l -cache:il1 il1:256:32:1:l -cache:il2 dl2 multi_quicksort_seq922729023
	sim-cache -cache:dl1 dl1:256:32:1:l -cache:dl2 dl2:65536:32:1:l -cache:il1 il1:256:32:1:l -cache:il2 dl2 multi_quicksort_seq922729023
	sim-cache -cache:dl1 dl1:1:32:256:l -cache:dl2 dl2:1:32:131072:l -cache:il1 il1:1:32:256:l -cache:il2 dl2 multi_quicksort_seq922729023
	sim-cache -cache:dl1 dl1:1:32:256:l -cache:dl2 dl2:1:32:65536:l -cache:il1 il1:1:32:256:l -cache:il2 dl2 multi_quicksort_seq922729023
	sim-bpred -bpred bimod -bpred:bimod 512 multi_quicksort_seq922729023
	sim-bpred -bpred bimod -bpred:bimod 1024 multi_quicksort_seq922729023
	sim-bpred -bpred bimod -bpred:bimod 2048 multi_quicksort_seq922729023
	sim-bpred -bpred 2lev -bpred:2lev 1 512 10 1 multi_quicksort_seq922729023
	sim-bpred -bpred 2lev -bpred:2lev 1 1024 10 1 multi_quicksort_seq922729023
	sim-bpred -bpred 2lev -bpred:2lev 1 2048 10 1 multi_quicksort_seq922729023
	sim-bpred -bpred 2lev -bpred:2lev 1 4096 10 1 multi_quicksort_seq922729023
	sslittle-na-sstrix-gcc -Wall -O3 -funroll-loops -finline-functions  -DRANDOM_SIZE=262144 -DOFFSET=0 -DSORT=multi_quicksort_seq sorts/multi_quicksort_seq2073362569.c simpleMain.c -o multi_quicksort_seq922729023
	sim-cache -cache:dl1 dl1:256:32:1:l -cache:dl2 dl2:131072:32:1:l -cache:il1 il1:256:32:1:l -cache:il2 dl2 multi_quicksort_seq922729023
	sim-cache -cache:dl1 dl1:256:32:1:l -cache:dl2 dl2:65536:32:1:l -cache:il1 il1:256:32:1:l -cache:il2 dl2 multi_quicksort_seq922729023
	sim-cache -cache:dl1 dl1:1:32:256:l -cache:dl2 dl2:1:32:131072:l -cache:il1 il1:1:32:256:l -cache:il2 dl2 multi_quicksort_seq922729023
	sim-cache -cache:dl1 dl1:1:32:256:l -cache:dl2 dl2:1:32:65536:l -cache:il1 il1:1:32:256:l -cache:il2 dl2 multi_quicksort_seq922729023
	sim-bpred -bpred bimod -bpred:bimod 512 multi_quicksort_seq922729023
	sim-bpred -bpred bimod -bpred:bimod 1024 multi_quicksort_seq922729023
	sim-bpred -bpred bimod -bpred:bimod 2048 multi_quicksort_seq922729023
	sim-bpred -bpred 2lev -bpred:2lev 1 512 10 1 multi_quicksort_seq922729023
	sim-bpred -bpred 2lev -bpred:2lev 1 1024 10 1 multi_quicksort_seq922729023
	sim-bpred -bpred 2lev -bpred:2lev 1 2048 10 1 multi_quicksort_seq922729023
	sim-bpred -bpred 2lev -bpred:2lev 1 4096 10 1 multi_quicksort_seq922729023
	sslittle-na-sstrix-gcc -Wall -O3 -funroll-loops -finline-functions  -DRANDOM_SIZE=524288 -DOFFSET=0 -DSORT=multi_quicksort_seq sorts/multi_quicksort_seq2073362569.c simpleMain.c -o multi_quicksort_seq922729023
	sim-cache -cache:dl1 dl1:256:32:1:l -cache:dl2 dl2:131072:32:1:l -cache:il1 il1:256:32:1:l -cache:il2 dl2 multi_quicksort_seq922729023
	sim-cache -cache:dl1 dl1:256:32:1:l -cache:dl2 dl2:65536:32:1:l -cache:il1 il1:256:32:1:l -cache:il2 dl2 multi_quicksort_seq922729023
	sim-cache -cache:dl1 dl1:1:32:256:l -cache:dl2 dl2:1:32:131072:l -cache:il1 il1:1:32:256:l -cache:il2 dl2 multi_quicksort_seq922729023
	sim-cache -cache:dl1 dl1:1:32:256:l -cache:dl2 dl2:1:32:65536:l -cache:il1 il1:1:32:256:l -cache:il2 dl2 multi_quicksort_seq922729023
	sim-bpred -bpred bimod -bpred:bimod 512 multi_quicksort_seq922729023
	sim-bpred -bpred bimod -bpred:bimod 1024 multi_quicksort_seq922729023
	sim-bpred -bpred bimod -bpred:bimod 2048 multi_quicksort_seq922729023
	sim-bpred -bpred 2lev -bpred:2lev 1 512 10 1 multi_quicksort_seq922729023
	sim-bpred -bpred 2lev -bpred:2lev 1 1024 10 1 multi_quicksort_seq922729023
	sim-bpred -bpred 2lev -bpred:2lev 1 2048 10 1 multi_quicksort_seq922729023
	sim-bpred -bpred 2lev -bpred:2lev 1 4096 10 1 multi_quicksort_seq922729023
	sslittle-na-sstrix-gcc -Wall -O3 -funroll-loops -finline-functions  -DRANDOM_SIZE=1048576 -DOFFSET=0 -DSORT=multi_quicksort_seq sorts/multi_quicksort_seq2073362569.c simpleMain.c -o multi_quicksort_seq922729023
	sim-cache -cache:dl1 dl1:256:32:1:l -cache:dl2 dl2:131072:32:1:l -cache:il1 il1:256:32:1:l -cache:il2 dl2 multi_quicksort_seq922729023
	sim-cache -cache:dl1 dl1:256:32:1:l -cache:dl2 dl2:65536:32:1:l -cache:il1 il1:256:32:1:l -cache:il2 dl2 multi_quicksort_seq922729023
	sim-cache -cache:dl1 dl1:1:32:256:l -cache:dl2 dl2:1:32:131072:l -cache:il1 il1:1:32:256:l -cache:il2 dl2 multi_quicksort_seq922729023
	sim-cache -cache:dl1 dl1:1:32:256:l -cache:dl2 dl2:1:32:65536:l -cache:il1 il1:1:32:256:l -cache:il2 dl2 multi_quicksort_seq922729023
	sim-bpred -bpred bimod -bpred:bimod 512 multi_quicksort_seq922729023
	sim-bpred -bpred bimod -bpred:bimod 1024 multi_quicksort_seq922729023
	sim-bpred -bpred bimod -bpred:bimod 2048 multi_quicksort_seq922729023
	sim-bpred -bpred 2lev -bpred:2lev 1 512 10 1 multi_quicksort_seq922729023
	sim-bpred -bpred 2lev -bpred:2lev 1 1024 10 1 multi_quicksort_seq922729023
	sim-bpred -bpred 2lev -bpred:2lev 1 2048 10 1 multi_quicksort_seq922729023
	sim-bpred -bpred 2lev -bpred:2lev 1 4096 10 1 multi_quicksort_seq922729023
	sslittle-na-sstrix-gcc -Wall -O3 -funroll-loops -finline-functions  -DRANDOM_SIZE=2097152 -DOFFSET=0 -DSORT=multi_quicksort_seq sorts/multi_quicksort_seq2073362569.c simpleMain.c -o multi_quicksort_seq922729023
	sim-cache -cache:dl1 dl1:256:32:1:l -cache:dl2 dl2:131072:32:1:l -cache:il1 il1:256:32:1:l -cache:il2 dl2 multi_quicksort_seq922729023
	sim-cache -cache:dl1 dl1:256:32:1:l -cache:dl2 dl2:65536:32:1:l -cache:il1 il1:256:32:1:l -cache:il2 dl2 multi_quicksort_seq922729023
	sim-cache -cache:dl1 dl1:1:32:256:l -cache:dl2 dl2:1:32:131072:l -cache:il1 il1:1:32:256:l -cache:il2 dl2 multi_quicksort_seq922729023
	sim-cache -cache:dl1 dl1:1:32:256:l -cache:dl2 dl2:1:32:65536:l -cache:il1 il1:1:32:256:l -cache:il2 dl2 multi_quicksort_seq922729023
	sim-bpred -bpred bimod -bpred:bimod 512 multi_quicksort_seq922729023
	sim-bpred -bpred bimod -bpred:bimod 1024 multi_quicksort_seq922729023
	sim-bpred -bpred bimod -bpred:bimod 2048 multi_quicksort_seq922729023
	sim-bpred -bpred 2lev -bpred:2lev 1 512 10 1 multi_quicksort_seq922729023
	sim-bpred -bpred 2lev -bpred:2lev 1 1024 10 1 multi_quicksort_seq922729023
	sim-bpred -bpred 2lev -bpred:2lev 1 2048 10 1 multi_quicksort_seq922729023
	sim-bpred -bpred 2lev -bpred:2lev 1 4096 10 1 multi_quicksort_seq922729023
	sslittle-na-sstrix-gcc -Wall -O3 -funroll-loops -finline-functions  -DRANDOM_SIZE=4194304 -DOFFSET=0 -DSORT=multi_quicksort_seq sorts/multi_quicksort_seq2073362569.c simpleMain.c -o multi_quicksort_seq922729023
	sim-cache -cache:dl1 dl1:256:32:1:l -cache:dl2 dl2:131072:32:1:l -cache:il1 il1:256:32:1:l -cache:il2 dl2 multi_quicksort_seq922729023
	sim-cache -cache:dl1 dl1:256:32:1:l -cache:dl2 dl2:65536:32:1:l -cache:il1 il1:256:32:1:l -cache:il2 dl2 multi_quicksort_seq922729023
	sim-cache -cache:dl1 dl1:1:32:256:l -cache:dl2 dl2:1:32:131072:l -cache:il1 il1:1:32:256:l -cache:il2 dl2 multi_quicksort_seq922729023
	sim-cache -cache:dl1 dl1:1:32:256:l -cache:dl2 dl2:1:32:65536:l -cache:il1 il1:1:32:256:l -cache:il2 dl2 multi_quicksort_seq922729023
	sim-bpred -bpred bimod -bpred:bimod 512 multi_quicksort_seq922729023
	sim-bpred -bpred bimod -bpred:bimod 1024 multi_quicksort_seq922729023
	sim-bpred -bpred bimod -bpred:bimod 2048 multi_quicksort_seq922729023
	sim-bpred -bpred 2lev -bpred:2lev 1 512 10 1 multi_quicksort_seq922729023
	sim-bpred -bpred 2lev -bpred:2lev 1 1024 10 1 multi_quicksort_seq922729023
	sim-bpred -bpred 2lev -bpred:2lev 1 2048 10 1 multi_quicksort_seq922729023
	sim-bpred -bpred 2lev -bpred:2lev 1 4096 10 1 multi_quicksort_seq922729023
