Fri Aug  5 04:36:03 2005
Run as: "./do_simple -c random.org9 -o 9 multi_mergesort"
-------------------------------------------------------------------------------------------------
sim-cache                                     4096 |         4096 |         4096 |         4096 |         8192 |         8192 |         8192 |         8192 |        16384 |        16384 |        16384 |        16384 |        32768 |        32768 |        32768 |        32768 |        65536 |        65536 |        65536 |        65536 |       131072 |       131072 |       131072 |       131072 |       262144 |       262144 |       262144 |       262144 |       524288 |       524288 |       524288 |       524288 |      1048576 |      1048576 |      1048576 |      1048576 |      2097152 |      2097152 |      2097152 |      2097152 |      4194304 |      4194304 |      4194304 |      4194304 |
-cache:dl1 dl1:256:32:1:l -cache:dl2 dl2:131072:32:1:l -cache:il1 il1:256:32:1:l -cache:il2 dl2
-cache:dl1 dl1:256:32:1:l -cache:dl2 dl2:65536:32:1:l -cache:il1 il1:256:32:1:l -cache:il2 dl2
-cache:dl1 dl1:1:32:256:l -cache:dl2 dl2:1:32:131072:l -cache:il1 il1:1:32:256:l -cache:il2 dl2
-cache:dl1 dl1:1:32:256:l -cache:dl2 dl2:1:32:65536:l -cache:il1 il1:1:32:256:l -cache:il2 dl2
-------------------------------------------------------------------------------------------------
sim_num_insn                                857891 |       857891 |       857891 |       857891 |      1750852 |      1750852 |      1750852 |      1750852 |      3962469 |      3962469 |      3962469 |      3962469 |      8068939 |      8068939 |      8068939 |      8068939 |     17987126 |     17987126 |     17987126 |     17987126 |     36574775 |     36574775 |     36574775 |     36574775 |     77471315 |     77471315 |     77471315 |     77471315 |    223414399 |    223414399 |    223414399 |    223414399 |    473237326 |    473237326 |    473237326 |    473237326 |   1035748349 |   1035748349 |   1035748349 |   1035748349 |   2186646719 |   2186646719 |   2186646719 |   2186646719 |
sim_num_refs                                228574 |       228574 |       228574 |       228574 |       472072 |       472072 |       472072 |       472072 |      1052237 |      1052237 |      1052237 |      1052237 |      2172199 |      2172199 |      2172199 |      2172199 |      4785823 |      4785823 |      4785823 |      4785823 |      9855697 |      9855697 |      9855697 |      9855697 |     20887502 |     20887502 |     20887502 |     20887502 |     60950233 |     60950233 |     60950233 |     60950233 |    130168139 |    130168139 |    130168139 |    130168139 |    283196897 |    283196897 |    283196897 |    283196897 |    604301921 |    604301921 |    604301921 |    604301921 |
sim_elapsed_time                                 1 |            1 |           10 |            6 |            1 |            1 |           16 |            8 |            2 |            1 |           26 |           14 |            2 |            3 |           48 |           24 |            5 |            5 |           89 |           44 |           10 |           10 |          163 |           76 |           21 |           21 |          280 |          107 |           61 |           62 |          404 |          149 |          129 |          128 |          475 |          221 |          282 |          282 |          637 |          384 |          595 |          594 |          968 |          725 |
sim_inst_rate                          857891.0000 |  857891.0000 |   85789.1000 |  142981.8333 | 1750852.0000 | 1750852.0000 |  109428.2500 |  218856.5000 | 1981234.5000 | 3962469.0000 |  152402.6538 |  283033.5000 | 4034469.5000 | 2689646.3333 |  168102.8958 |  336205.7917 | 3597425.2000 | 3597425.2000 |  202102.5393 |  408798.3182 | 3657477.5000 | 3657477.5000 |  224385.1227 |  481247.0395 | 3689110.2381 | 3689110.2381 |  276683.2679 |  724030.9813 | 3662531.1311 | 3603458.0484 |  553005.9381 | 1499425.4966 | 3668506.4031 | 3697166.6094 |  996289.1074 | 2141345.3665 | 3672866.4858 | 3672866.4858 | 1625978.5699 | 2697261.3255 | 3675036.5025 | 3681223.4327 | 2258932.5610 | 3016064.4400 |
il1.accesses                                857891 |       857891 |       857891 |       857891 |      1750852 |      1750852 |      1750852 |      1750852 |      3962469 |      3962469 |      3962469 |      3962469 |      8068939 |      8068939 |      8068939 |      8068939 |     17987126 |     17987126 |     17987126 |     17987126 |     36574775 |     36574775 |     36574775 |     36574775 |     77471315 |     77471315 |     77471315 |     77471315 |    223414399 |    223414399 |    223414399 |    223414399 |    473237326 |    473237326 |    473237326 |    473237326 |   1035748349 |   1035748349 |   1035748349 |   1035748349 |   2186646719 |   2186646719 |   2186646719 |   2186646719 |
il1.hits                                    857208 |       857208 |       857313 |       857313 |      1750124 |      1750124 |      1750253 |      1750253 |      3961724 |      3961724 |      3961893 |      3961893 |      8068062 |      8068062 |      8068336 |      8068336 |     17986079 |     17986079 |     17986542 |     17986542 |     36573322 |     36573322 |     36574172 |     36574172 |     77469604 |     77469604 |     77470715 |     77470715 |    222102669 |    222102669 |    223413508 |    223413508 |    470614824 |    470614824 |    473236389 |    473236389 |   1030504416 |   1030504416 |   1035747430 |   1035747430 |   2176159873 |   2176159873 |   2186645782 |   2186645782 |
il1.misses                                     683 |          683 |          578 |          578 |          728 |          728 |          599 |          599 |          745 |          745 |          576 |          576 |          877 |          877 |          603 |          603 |         1047 |         1047 |          584 |          584 |         1453 |         1453 |          603 |          603 |         1711 |         1711 |          600 |          600 |      1311730 |      1311730 |          891 |          891 |      2622502 |      2622502 |          937 |          937 |      5243933 |      5243933 |          919 |          919 |     10486846 |     10486846 |          937 |          937 |
il1.replacements                               449 |          449 |          322 |          322 |          492 |          492 |          343 |          343 |          510 |          510 |          320 |          320 |          641 |          641 |          347 |          347 |          812 |          812 |          328 |          328 |         1217 |         1217 |          347 |          347 |         1474 |         1474 |          344 |          344 |      1311474 |      1311474 |          635 |          635 |      2622246 |      2622246 |          681 |          681 |      5243677 |      5243677 |          663 |          663 |     10486590 |     10486590 |          681 |          681 |
il1.writebacks                                   0 |            0 |            0 |            0 |            0 |            0 |            0 |            0 |            0 |            0 |            0 |            0 |            0 |            0 |            0 |            0 |            0 |            0 |            0 |            0 |            0 |            0 |            0 |            0 |            0 |            0 |            0 |            0 |            0 |            0 |            0 |            0 |            0 |            0 |            0 |            0 |            0 |            0 |            0 |            0 |            0 |            0 |            0 |            0 |
il1.invalidations                                0 |            0 |            0 |            0 |            0 |            0 |            0 |            0 |            0 |            0 |            0 |            0 |            0 |            0 |            0 |            0 |            0 |            0 |            0 |            0 |            0 |            0 |            0 |            0 |            0 |            0 |            0 |            0 |            0 |            0 |            0 |            0 |            0 |            0 |            0 |            0 |            0 |            0 |            0 |            0 |            0 |            0 |            0 |            0 |
il1.miss_rate                               0.0008 |       0.0008 |       0.0007 |       0.0007 |       0.0004 |       0.0004 |       0.0003 |       0.0003 |       0.0002 |       0.0002 |       0.0001 |       0.0001 |       0.0001 |       0.0001 |       0.0001 |       0.0001 |       0.0001 |       0.0001 |       0.0000 |       0.0000 |       0.0000 |       0.0000 |       0.0000 |       0.0000 |       0.0000 |       0.0000 |       0.0000 |       0.0000 |       0.0059 |       0.0059 |       0.0000 |       0.0000 |       0.0055 |       0.0055 |       0.0000 |       0.0000 |       0.0051 |       0.0051 |       0.0000 |       0.0000 |       0.0048 |       0.0048 |       0.0000 |       0.0000 |
il1.repl_rate                               0.0005 |       0.0005 |       0.0004 |       0.0004 |       0.0003 |       0.0003 |       0.0002 |       0.0002 |       0.0001 |       0.0001 |       0.0001 |       0.0001 |       0.0001 |       0.0001 |       0.0000 |       0.0000 |       0.0000 |       0.0000 |       0.0000 |       0.0000 |       0.0000 |       0.0000 |       0.0000 |       0.0000 |       0.0000 |       0.0000 |       0.0000 |       0.0000 |       0.0059 |       0.0059 |       0.0000 |       0.0000 |       0.0055 |       0.0055 |       0.0000 |       0.0000 |       0.0051 |       0.0051 |       0.0000 |       0.0000 |       0.0048 |       0.0048 |       0.0000 |       0.0000 |
il1.wb_rate                                 0.0000 |       0.0000 |       0.0000 |       0.0000 |       0.0000 |       0.0000 |       0.0000 |       0.0000 |       0.0000 |       0.0000 |       0.0000 |       0.0000 |       0.0000 |       0.0000 |       0.0000 |       0.0000 |       0.0000 |       0.0000 |       0.0000 |       0.0000 |       0.0000 |       0.0000 |       0.0000 |       0.0000 |       0.0000 |       0.0000 |       0.0000 |       0.0000 |       0.0000 |       0.0000 |       0.0000 |       0.0000 |       0.0000 |       0.0000 |       0.0000 |       0.0000 |       0.0000 |       0.0000 |       0.0000 |       0.0000 |       0.0000 |       0.0000 |       0.0000 |       0.0000 |
il1.inv_rate                                0.0000 |       0.0000 |       0.0000 |       0.0000 |       0.0000 |       0.0000 |       0.0000 |       0.0000 |       0.0000 |       0.0000 |       0.0000 |       0.0000 |       0.0000 |       0.0000 |       0.0000 |       0.0000 |       0.0000 |       0.0000 |       0.0000 |       0.0000 |       0.0000 |       0.0000 |       0.0000 |       0.0000 |       0.0000 |       0.0000 |       0.0000 |       0.0000 |       0.0000 |       0.0000 |       0.0000 |       0.0000 |       0.0000 |       0.0000 |       0.0000 |       0.0000 |       0.0000 |       0.0000 |       0.0000 |       0.0000 |       0.0000 |       0.0000 |       0.0000 |       0.0000 |
dl1.accesses                                245040 |       245040 |       245040 |       245040 |       504922 |       504922 |       504922 |       504922 |      1117855 |      1117855 |      1117855 |      1117855 |      2303353 |      2303353 |      2303353 |      2303353 |      5048049 |      5048049 |      5048049 |      5048049 |     10380067 |     10380067 |     10380067 |     10380067 |     21936160 |     21936160 |     21936160 |     21936160 |     63047467 |     63047467 |     63047467 |     63047467 |    134362525 |    134362525 |    134362525 |    134362525 |    291585587 |    291585587 |    291585587 |    291585587 |    621079219 |    621079219 |    621079219 |    621079219 |
dl1.hits                                    217104 |       217104 |       238079 |       238079 |       455673 |       455673 |       490707 |       490707 |       999169 |       999169 |      1083256 |      1083256 |      2089360 |      2089360 |      2231567 |      2231567 |      4538686 |      4538686 |      4878351 |      4878351 |      9450557 |      9450557 |     10028702 |     10028702 |     20003904 |     20003904 |     21168431 |     21168431 |     58320832 |     58320832 |     61298910 |     61298910 |    125888307 |    125888307 |    131029790 |    131029790 |    272651310 |    272651310 |    284597170 |    284597170 |    587113650 |    587113650 |    607750970 |    607750970 |
dl1.misses                                   27936 |        27936 |         6961 |         6961 |        49249 |        49249 |        14215 |        14215 |       118686 |       118686 |        34599 |        34599 |       213993 |       213993 |        71786 |        71786 |       509363 |       509363 |       169698 |       169698 |       929510 |       929510 |       351365 |       351365 |      1932256 |      1932256 |       767729 |       767729 |      4726635 |      4726635 |      1748557 |      1748557 |      8474218 |      8474218 |      3332735 |      3332735 |     18934277 |     18934277 |      6988417 |      6988417 |     33965569 |     33965569 |     13328249 |     13328249 |
dl1.replacements                             27680 |        27680 |         6705 |         6705 |        48993 |        48993 |        13959 |        13959 |       118430 |       118430 |        34343 |        34343 |       213737 |       213737 |        71530 |        71530 |       509107 |       509107 |       169442 |       169442 |       929254 |       929254 |       351109 |       351109 |      1932000 |      1932000 |       767473 |       767473 |      4726379 |      4726379 |      1748301 |      1748301 |      8473962 |      8473962 |      3332479 |      3332479 |     18934021 |     18934021 |      6988161 |      6988161 |     33965313 |     33965313 |     13327993 |     13327993 |
dl1.writebacks                               14998 |        14998 |         5065 |         5065 |        26776 |        26776 |         9788 |         9788 |        63380 |        63380 |        23381 |        23381 |       115277 |       115277 |        46380 |        46380 |       270117 |       270117 |       108988 |       108988 |       496215 |       496215 |       217400 |       217400 |      1026984 |      1026984 |       467172 |       467172 |      2549866 |      2549866 |      1067323 |      1067323 |      4622063 |      4622063 |      1999590 |      1999590 |     10229112 |     10229112 |      4266088 |      4266088 |     18560291 |     18560291 |      7997873 |      7997873 |
dl1.invalidations                                0 |            0 |            0 |            0 |            0 |            0 |            0 |            0 |            0 |            0 |            0 |            0 |            0 |            0 |            0 |            0 |            0 |            0 |            0 |            0 |            0 |            0 |            0 |            0 |            0 |            0 |            0 |            0 |            0 |            0 |            0 |            0 |            0 |            0 |            0 |            0 |            0 |            0 |            0 |            0 |            0 |            0 |            0 |            0 |
dl1.miss_rate                               0.1140 |       0.1140 |       0.0284 |       0.0284 |       0.0975 |       0.0975 |       0.0282 |       0.0282 |       0.1062 |       0.1062 |       0.0310 |       0.0310 |       0.0929 |       0.0929 |       0.0312 |       0.0312 |       0.1009 |       0.1009 |       0.0336 |       0.0336 |       0.0895 |       0.0895 |       0.0338 |       0.0338 |       0.0881 |       0.0881 |       0.0350 |       0.0350 |       0.0750 |       0.0750 |       0.0277 |       0.0277 |       0.0631 |       0.0631 |       0.0248 |       0.0248 |       0.0649 |       0.0649 |       0.0240 |       0.0240 |       0.0547 |       0.0547 |       0.0215 |       0.0215 |
dl1.repl_rate                               0.1130 |       0.1130 |       0.0274 |       0.0274 |       0.0970 |       0.0970 |       0.0276 |       0.0276 |       0.1059 |       0.1059 |       0.0307 |       0.0307 |       0.0928 |       0.0928 |       0.0311 |       0.0311 |       0.1009 |       0.1009 |       0.0336 |       0.0336 |       0.0895 |       0.0895 |       0.0338 |       0.0338 |       0.0881 |       0.0881 |       0.0350 |       0.0350 |       0.0750 |       0.0750 |       0.0277 |       0.0277 |       0.0631 |       0.0631 |       0.0248 |       0.0248 |       0.0649 |       0.0649 |       0.0240 |       0.0240 |       0.0547 |       0.0547 |       0.0215 |       0.0215 |
dl1.wb_rate                                 0.0612 |       0.0612 |       0.0207 |       0.0207 |       0.0530 |       0.0530 |       0.0194 |       0.0194 |       0.0567 |       0.0567 |       0.0209 |       0.0209 |       0.0500 |       0.0500 |       0.0201 |       0.0201 |       0.0535 |       0.0535 |       0.0216 |       0.0216 |       0.0478 |       0.0478 |       0.0209 |       0.0209 |       0.0468 |       0.0468 |       0.0213 |       0.0213 |       0.0404 |       0.0404 |       0.0169 |       0.0169 |       0.0344 |       0.0344 |       0.0149 |       0.0149 |       0.0351 |       0.0351 |       0.0146 |       0.0146 |       0.0299 |       0.0299 |       0.0129 |       0.0129 |
dl1.inv_rate                                0.0000 |       0.0000 |       0.0000 |       0.0000 |       0.0000 |       0.0000 |       0.0000 |       0.0000 |       0.0000 |       0.0000 |       0.0000 |       0.0000 |       0.0000 |       0.0000 |       0.0000 |       0.0000 |       0.0000 |       0.0000 |       0.0000 |       0.0000 |       0.0000 |       0.0000 |       0.0000 |       0.0000 |       0.0000 |       0.0000 |       0.0000 |       0.0000 |       0.0000 |       0.0000 |       0.0000 |       0.0000 |       0.0000 |       0.0000 |       0.0000 |       0.0000 |       0.0000 |       0.0000 |       0.0000 |       0.0000 |       0.0000 |       0.0000 |       0.0000 |       0.0000 |
dl2.accesses                                 43617 |        43617 |        12604 |        12604 |        76753 |        76753 |        24602 |        24602 |       182811 |       182811 |        58556 |        58556 |       330147 |       330147 |       118769 |       118769 |       780527 |       780527 |       279270 |       279270 |      1427178 |      1427178 |       569368 |       569368 |      2960951 |      2960951 |      1235501 |      1235501 |      8588231 |      8588231 |      2816771 |      2816771 |     15718783 |     15718783 |      5333262 |      5333262 |     34407322 |     34407322 |     11255424 |     11255424 |     63012706 |     63012706 |     21327059 |     21327059 |
dl2.hits                                     41560 |        41560 |        10640 |        10640 |        73639 |        73639 |        21597 |        21597 |       177683 |       177683 |        53525 |        53525 |       320886 |       320886 |       109617 |       109617 |       763103 |       763103 |       261943 |       261943 |      1393341 |      1393341 |       535640 |       535640 |      2894346 |      2894197 |      1169009 |      1132346 |      8400381 |      8300034 |      2647513 |      2425330 |     15134039 |     15063876 |      4686081 |      4553740 |     33093322 |     33092790 |      9945995 |      9699719 |     60384976 |     60383900 |     18703036 |     18217860 |
dl2.misses                                    2057 |         2057 |         1964 |         1964 |         3114 |         3114 |         3005 |         3005 |         5128 |         5128 |         5031 |         5031 |         9261 |         9261 |         9152 |         9152 |        17424 |        17424 |        17327 |        17327 |        33837 |        33837 |        33728 |        33728 |        66605 |        66754 |        66492 |       103155 |       187850 |       288197 |       169258 |       391441 |       584744 |       654907 |       647181 |       779522 |      1314000 |      1314532 |      1309429 |      1555705 |      2627730 |      2628806 |      2624023 |      3109199 |
dl2.replacements                               253 |          253 |            0 |            0 |          285 |          285 |            0 |            0 |          258 |          258 |            0 |            0 |          286 |          286 |            0 |            0 |          258 |          258 |            0 |            0 |          286 |          286 |            0 |            0 |          294 |         1218 |            0 |        37619 |        88094 |       222661 |        38186 |       325905 |       453672 |       589371 |       516109 |       713986 |      1182928 |      1248996 |      1178357 |      1490169 |      2496658 |      2563270 |      2492951 |      3043663 |
dl2.writebacks                                  88 |           88 |            0 |            0 |           96 |           96 |            0 |            0 |           93 |           93 |            0 |            0 |           97 |           97 |            0 |            0 |           93 |           93 |            0 |            0 |           97 |           97 |            0 |            0 |          108 |          718 |            0 |        37175 |        87832 |       188551 |        37358 |       292045 |       388882 |       473653 |       460429 |       614471 |       951273 |       993169 |       985375 |      1259433 |      1986587 |      2040675 |      2035345 |      2550477 |
dl2.invalidations                                0 |            0 |            0 |            0 |            0 |            0 |            0 |            0 |            0 |            0 |            0 |            0 |            0 |            0 |            0 |            0 |            0 |            0 |            0 |            0 |            0 |            0 |            0 |            0 |            0 |            0 |            0 |            0 |            0 |            0 |            0 |            0 |            0 |            0 |            0 |            0 |            0 |            0 |            0 |            0 |            0 |            0 |            0 |            0 |
dl2.miss_rate                               0.0472 |       0.0472 |       0.1558 |       0.1558 |       0.0406 |       0.0406 |       0.1221 |       0.1221 |       0.0281 |       0.0281 |       0.0859 |       0.0859 |       0.0281 |       0.0281 |       0.0771 |       0.0771 |       0.0223 |       0.0223 |       0.0620 |       0.0620 |       0.0237 |       0.0237 |       0.0592 |       0.0592 |       0.0225 |       0.0225 |       0.0538 |       0.0835 |       0.0219 |       0.0336 |       0.0601 |       0.1390 |       0.0372 |       0.0417 |       0.1213 |       0.1462 |       0.0382 |       0.0382 |       0.1163 |       0.1382 |       0.0417 |       0.0417 |       0.1230 |       0.1458 |
dl2.repl_rate                               0.0058 |       0.0058 |       0.0000 |       0.0000 |       0.0037 |       0.0037 |       0.0000 |       0.0000 |       0.0014 |       0.0014 |       0.0000 |       0.0000 |       0.0009 |       0.0009 |       0.0000 |       0.0000 |       0.0003 |       0.0003 |       0.0000 |       0.0000 |       0.0002 |       0.0002 |       0.0000 |       0.0000 |       0.0001 |       0.0004 |       0.0000 |       0.0304 |       0.0103 |       0.0259 |       0.0136 |       0.1157 |       0.0289 |       0.0375 |       0.0968 |       0.1339 |       0.0344 |       0.0363 |       0.1047 |       0.1324 |       0.0396 |       0.0407 |       0.1169 |       0.1427 |
dl2.wb_rate                                 0.0020 |       0.0020 |       0.0000 |       0.0000 |       0.0013 |       0.0013 |       0.0000 |       0.0000 |       0.0005 |       0.0005 |       0.0000 |       0.0000 |       0.0003 |       0.0003 |       0.0000 |       0.0000 |       0.0001 |       0.0001 |       0.0000 |       0.0000 |       0.0001 |       0.0001 |       0.0000 |       0.0000 |       0.0000 |       0.0002 |       0.0000 |       0.0301 |       0.0102 |       0.0220 |       0.0133 |       0.1037 |       0.0247 |       0.0301 |       0.0863 |       0.1152 |       0.0276 |       0.0289 |       0.0875 |       0.1119 |       0.0315 |       0.0324 |       0.0954 |       0.1196 |
dl2.inv_rate                                0.0000 |       0.0000 |       0.0000 |       0.0000 |       0.0000 |       0.0000 |       0.0000 |       0.0000 |       0.0000 |       0.0000 |       0.0000 |       0.0000 |       0.0000 |       0.0000 |       0.0000 |       0.0000 |       0.0000 |       0.0000 |       0.0000 |       0.0000 |       0.0000 |       0.0000 |       0.0000 |       0.0000 |       0.0000 |       0.0000 |       0.0000 |       0.0000 |       0.0000 |       0.0000 |       0.0000 |       0.0000 |       0.0000 |       0.0000 |       0.0000 |       0.0000 |       0.0000 |       0.0000 |       0.0000 |       0.0000 |       0.0000 |       0.0000 |       0.0000 |       0.0000 |
itlb.accesses                               857891 |       857891 |       857891 |       857891 |      1750852 |      1750852 |      1750852 |      1750852 |      3962469 |      3962469 |      3962469 |      3962469 |      8068939 |      8068939 |      8068939 |      8068939 |     17987126 |     17987126 |     17987126 |     17987126 |     36574775 |     36574775 |     36574775 |     36574775 |     77471315 |     77471315 |     77471315 |     77471315 |    223414399 |    223414399 |    223414399 |    223414399 |    473237326 |    473237326 |    473237326 |    473237326 |   1035748349 |   1035748349 |   1035748349 |   1035748349 |   2186646719 |   2186646719 |   2186646719 |   2186646719 |
itlb.hits                                   857877 |       857877 |       857877 |       857877 |      1750838 |      1750838 |      1750838 |      1750838 |      3962455 |      3962455 |      3962455 |      3962455 |      8068925 |      8068925 |      8068925 |      8068925 |     17987112 |     17987112 |     17987112 |     17987112 |     36574761 |     36574761 |     36574761 |     36574761 |     77471301 |     77471301 |     77471301 |     77471301 |    223414385 |    223414385 |    223414385 |    223414385 |    473237312 |    473237312 |    473237312 |    473237312 |   1035748335 |   1035748335 |   1035748335 |   1035748335 |   2186646705 |   2186646705 |   2186646705 |   2186646705 |
itlb.misses                                     14 |           14 |           14 |           14 |           14 |           14 |           14 |           14 |           14 |           14 |           14 |           14 |           14 |           14 |           14 |           14 |           14 |           14 |           14 |           14 |           14 |           14 |           14 |           14 |           14 |           14 |           14 |           14 |           14 |           14 |           14 |           14 |           14 |           14 |           14 |           14 |           14 |           14 |           14 |           14 |           14 |           14 |           14 |           14 |
itlb.replacements                                0 |            0 |            0 |            0 |            0 |            0 |            0 |            0 |            0 |            0 |            0 |            0 |            0 |            0 |            0 |            0 |            0 |            0 |            0 |            0 |            0 |            0 |            0 |            0 |            0 |            0 |            0 |            0 |            0 |            0 |            0 |            0 |            0 |            0 |            0 |            0 |            0 |            0 |            0 |            0 |            0 |            0 |            0 |            0 |
itlb.writebacks                                  0 |            0 |            0 |            0 |            0 |            0 |            0 |            0 |            0 |            0 |            0 |            0 |            0 |            0 |            0 |            0 |            0 |            0 |            0 |            0 |            0 |            0 |            0 |            0 |            0 |            0 |            0 |            0 |            0 |            0 |            0 |            0 |            0 |            0 |            0 |            0 |            0 |            0 |            0 |            0 |            0 |            0 |            0 |            0 |
itlb.invalidations                               0 |            0 |            0 |            0 |            0 |            0 |            0 |            0 |            0 |            0 |            0 |            0 |            0 |            0 |            0 |            0 |            0 |            0 |            0 |            0 |            0 |            0 |            0 |            0 |            0 |            0 |            0 |            0 |            0 |            0 |            0 |            0 |            0 |            0 |            0 |            0 |            0 |            0 |            0 |            0 |            0 |            0 |            0 |            0 |
itlb.miss_rate                              0.0000 |       0.0000 |       0.0000 |       0.0000 |       0.0000 |       0.0000 |       0.0000 |       0.0000 |       0.0000 |       0.0000 |       0.0000 |       0.0000 |       0.0000 |       0.0000 |       0.0000 |       0.0000 |       0.0000 |       0.0000 |       0.0000 |       0.0000 |       0.0000 |       0.0000 |       0.0000 |       0.0000 |       0.0000 |       0.0000 |       0.0000 |       0.0000 |       0.0000 |       0.0000 |       0.0000 |       0.0000 |       0.0000 |       0.0000 |       0.0000 |       0.0000 |       0.0000 |       0.0000 |       0.0000 |       0.0000 |       0.0000 |       0.0000 |       0.0000 |       0.0000 |
itlb.repl_rate                              0.0000 |       0.0000 |       0.0000 |       0.0000 |       0.0000 |       0.0000 |       0.0000 |       0.0000 |       0.0000 |       0.0000 |       0.0000 |       0.0000 |       0.0000 |       0.0000 |       0.0000 |       0.0000 |       0.0000 |       0.0000 |       0.0000 |       0.0000 |       0.0000 |       0.0000 |       0.0000 |       0.0000 |       0.0000 |       0.0000 |       0.0000 |       0.0000 |       0.0000 |       0.0000 |       0.0000 |       0.0000 |       0.0000 |       0.0000 |       0.0000 |       0.0000 |       0.0000 |       0.0000 |       0.0000 |       0.0000 |       0.0000 |       0.0000 |       0.0000 |       0.0000 |
itlb.wb_rate                                0.0000 |       0.0000 |       0.0000 |       0.0000 |       0.0000 |       0.0000 |       0.0000 |       0.0000 |       0.0000 |       0.0000 |       0.0000 |       0.0000 |       0.0000 |       0.0000 |       0.0000 |       0.0000 |       0.0000 |       0.0000 |       0.0000 |       0.0000 |       0.0000 |       0.0000 |       0.0000 |       0.0000 |       0.0000 |       0.0000 |       0.0000 |       0.0000 |       0.0000 |       0.0000 |       0.0000 |       0.0000 |       0.0000 |       0.0000 |       0.0000 |       0.0000 |       0.0000 |       0.0000 |       0.0000 |       0.0000 |       0.0000 |       0.0000 |       0.0000 |       0.0000 |
itlb.inv_rate                               0.0000 |       0.0000 |       0.0000 |       0.0000 |       0.0000 |       0.0000 |       0.0000 |       0.0000 |       0.0000 |       0.0000 |       0.0000 |       0.0000 |       0.0000 |       0.0000 |       0.0000 |       0.0000 |       0.0000 |       0.0000 |       0.0000 |       0.0000 |       0.0000 |       0.0000 |       0.0000 |       0.0000 |       0.0000 |       0.0000 |       0.0000 |       0.0000 |       0.0000 |       0.0000 |       0.0000 |       0.0000 |       0.0000 |       0.0000 |       0.0000 |       0.0000 |       0.0000 |       0.0000 |       0.0000 |       0.0000 |       0.0000 |       0.0000 |       0.0000 |       0.0000 |
dtlb.accesses                               245040 |       245040 |       245040 |       245040 |       504922 |       504922 |       504922 |       504922 |      1117855 |      1117855 |      1117855 |      1117855 |      2303353 |      2303353 |      2303353 |      2303353 |      5048049 |      5048049 |      5048049 |      5048049 |     10380067 |     10380067 |     10380067 |     10380067 |     21936160 |     21936160 |     21936160 |     21936160 |     63047467 |     63047467 |     63047467 |     63047467 |    134362525 |    134362525 |    134362525 |    134362525 |    291585587 |    291585587 |    291585587 |    291585587 |    621079219 |    621079219 |    621079219 |    621079219 |
dtlb.hits                                   245024 |       245024 |       245024 |       245024 |       504898 |       504898 |       504898 |       504898 |      1117815 |      1117815 |      1117815 |      1117815 |      2303281 |      2303281 |      2303281 |      2303281 |      5047864 |      5047864 |      5047864 |      5047864 |     10377641 |     10377641 |     10377641 |     10377641 |     21930746 |     21930746 |     21930746 |     21930746 |     63035736 |     63035736 |     63035736 |     63035736 |    134338710 |    134338710 |    134338710 |    134338710 |    291520911 |    291520911 |    291520911 |    291520911 |    620618209 |    620618209 |    620618209 |    620618209 |
dtlb.misses                                     16 |           16 |           16 |           16 |           24 |           24 |           24 |           24 |           40 |           40 |           40 |           40 |           72 |           72 |           72 |           72 |          185 |          185 |          185 |          185 |         2426 |         2426 |         2426 |         2426 |         5414 |         5414 |         5414 |         5414 |        11731 |        11731 |        11731 |        11731 |        23815 |        23815 |        23815 |        23815 |        64676 |        64676 |        64676 |        64676 |       461010 |       461010 |       461010 |       461010 |
dtlb.replacements                                0 |            0 |            0 |            0 |            0 |            0 |            0 |            0 |            0 |            0 |            0 |            0 |            0 |            0 |            0 |            0 |           57 |           57 |           57 |           57 |         2298 |         2298 |         2298 |         2298 |         5286 |         5286 |         5286 |         5286 |        11603 |        11603 |        11603 |        11603 |        23687 |        23687 |        23687 |        23687 |        64548 |        64548 |        64548 |        64548 |       460882 |       460882 |       460882 |       460882 |
dtlb.writebacks                                  0 |            0 |            0 |            0 |            0 |            0 |            0 |            0 |            0 |            0 |            0 |            0 |            0 |            0 |            0 |            0 |           37 |           37 |           37 |           37 |         1333 |         1333 |         1333 |         1333 |         3029 |         3029 |         3029 |         3029 |         6583 |         6583 |         6583 |         6583 |        13210 |        13210 |        13210 |        13210 |        26467 |        26467 |        26467 |        26467 |        52961 |        52961 |        52961 |        52961 |
dtlb.invalidations                               0 |            0 |            0 |            0 |            0 |            0 |            0 |            0 |            0 |            0 |            0 |            0 |            0 |            0 |            0 |            0 |            0 |            0 |            0 |            0 |            0 |            0 |            0 |            0 |            0 |            0 |            0 |            0 |            0 |            0 |            0 |            0 |            0 |            0 |            0 |            0 |            0 |            0 |            0 |            0 |            0 |            0 |            0 |            0 |
dtlb.miss_rate                              0.0001 |       0.0001 |       0.0001 |       0.0001 |       0.0000 |       0.0000 |       0.0000 |       0.0000 |       0.0000 |       0.0000 |       0.0000 |       0.0000 |       0.0000 |       0.0000 |       0.0000 |       0.0000 |       0.0000 |       0.0000 |       0.0000 |       0.0000 |       0.0002 |       0.0002 |       0.0002 |       0.0002 |       0.0002 |       0.0002 |       0.0002 |       0.0002 |       0.0002 |       0.0002 |       0.0002 |       0.0002 |       0.0002 |       0.0002 |       0.0002 |       0.0002 |       0.0002 |       0.0002 |       0.0002 |       0.0002 |       0.0007 |       0.0007 |       0.0007 |       0.0007 |
dtlb.repl_rate                              0.0000 |       0.0000 |       0.0000 |       0.0000 |       0.0000 |       0.0000 |       0.0000 |       0.0000 |       0.0000 |       0.0000 |       0.0000 |       0.0000 |       0.0000 |       0.0000 |       0.0000 |       0.0000 |       0.0000 |       0.0000 |       0.0000 |       0.0000 |       0.0002 |       0.0002 |       0.0002 |       0.0002 |       0.0002 |       0.0002 |       0.0002 |       0.0002 |       0.0002 |       0.0002 |       0.0002 |       0.0002 |       0.0002 |       0.0002 |       0.0002 |       0.0002 |       0.0002 |       0.0002 |       0.0002 |       0.0002 |       0.0007 |       0.0007 |       0.0007 |       0.0007 |
dtlb.wb_rate                                0.0000 |       0.0000 |       0.0000 |       0.0000 |       0.0000 |       0.0000 |       0.0000 |       0.0000 |       0.0000 |       0.0000 |       0.0000 |       0.0000 |       0.0000 |       0.0000 |       0.0000 |       0.0000 |       0.0000 |       0.0000 |       0.0000 |       0.0000 |       0.0001 |       0.0001 |       0.0001 |       0.0001 |       0.0001 |       0.0001 |       0.0001 |       0.0001 |       0.0001 |       0.0001 |       0.0001 |       0.0001 |       0.0001 |       0.0001 |       0.0001 |       0.0001 |       0.0001 |       0.0001 |       0.0001 |       0.0001 |       0.0001 |       0.0001 |       0.0001 |       0.0001 |
dtlb.inv_rate                               0.0000 |       0.0000 |       0.0000 |       0.0000 |       0.0000 |       0.0000 |       0.0000 |       0.0000 |       0.0000 |       0.0000 |       0.0000 |       0.0000 |       0.0000 |       0.0000 |       0.0000 |       0.0000 |       0.0000 |       0.0000 |       0.0000 |       0.0000 |       0.0000 |       0.0000 |       0.0000 |       0.0000 |       0.0000 |       0.0000 |       0.0000 |       0.0000 |       0.0000 |       0.0000 |       0.0000 |       0.0000 |       0.0000 |       0.0000 |       0.0000 |       0.0000 |       0.0000 |       0.0000 |       0.0000 |       0.0000 |       0.0000 |       0.0000 |       0.0000 |       0.0000 |
ld_text_base                            0x00400000 |   0x00400000 |   0x00400000 |   0x00400000 |   0x00400000 |   0x00400000 |   0x00400000 |   0x00400000 |   0x00400000 |   0x00400000 |   0x00400000 |   0x00400000 |   0x00400000 |   0x00400000 |   0x00400000 |   0x00400000 |   0x00400000 |   0x00400000 |   0x00400000 |   0x00400000 |   0x00400000 |   0x00400000 |   0x00400000 |   0x00400000 |   0x00400000 |   0x00400000 |   0x00400000 |   0x00400000 |   0x00400000 |   0x00400000 |   0x00400000 |   0x00400000 |   0x00400000 |   0x00400000 |   0x00400000 |   0x00400000 |   0x00400000 |   0x00400000 |   0x00400000 |   0x00400000 |   0x00400000 |   0x00400000 |   0x00400000 |   0x00400000 |
ld_text_size                                 94704 |        94704 |        94704 |        94704 |        94736 |        94736 |        94736 |        94736 |        94752 |        94752 |        94752 |        94752 |        94768 |        94768 |        94768 |        94768 |        94768 |        94768 |        94768 |        94768 |        94768 |        94768 |        94768 |        94768 |        94768 |        94768 |        94768 |        94768 |        94768 |        94768 |        94768 |        94768 |        94768 |        94768 |        94768 |        94768 |        94768 |        94768 |        94768 |        94768 |        94768 |        94768 |        94768 |        94768 |
ld_data_base                            0x10000000 |   0x10000000 |   0x10000000 |   0x10000000 |   0x10000000 |   0x10000000 |   0x10000000 |   0x10000000 |   0x10000000 |   0x10000000 |   0x10000000 |   0x10000000 |   0x10000000 |   0x10000000 |   0x10000000 |   0x10000000 |   0x10000000 |   0x10000000 |   0x10000000 |   0x10000000 |   0x10000000 |   0x10000000 |   0x10000000 |   0x10000000 |   0x10000000 |   0x10000000 |   0x10000000 |   0x10000000 |   0x10000000 |   0x10000000 |   0x10000000 |   0x10000000 |   0x10000000 |   0x10000000 |   0x10000000 |   0x10000000 |   0x10000000 |   0x10000000 |   0x10000000 |   0x10000000 |   0x10000000 |   0x10000000 |   0x10000000 |   0x10000000 |
ld_data_size                                  8192 |         8192 |         8192 |         8192 |         8192 |         8192 |         8192 |         8192 |         8192 |         8192 |         8192 |         8192 |         8192 |         8192 |         8192 |         8192 |         8192 |         8192 |         8192 |         8192 |         8192 |         8192 |         8192 |         8192 |         8192 |         8192 |         8192 |         8192 |         8192 |         8192 |         8192 |         8192 |         8192 |         8192 |         8192 |         8192 |         8192 |         8192 |         8192 |         8192 |         8192 |         8192 |         8192 |         8192 |
ld_stack_base                           0x7fffc000 |   0x7fffc000 |   0x7fffc000 |   0x7fffc000 |   0x7fffc000 |   0x7fffc000 |   0x7fffc000 |   0x7fffc000 |   0x7fffc000 |   0x7fffc000 |   0x7fffc000 |   0x7fffc000 |   0x7fffc000 |   0x7fffc000 |   0x7fffc000 |   0x7fffc000 |   0x7fffc000 |   0x7fffc000 |   0x7fffc000 |   0x7fffc000 |   0x7fffc000 |   0x7fffc000 |   0x7fffc000 |   0x7fffc000 |   0x7fffc000 |   0x7fffc000 |   0x7fffc000 |   0x7fffc000 |   0x7fffc000 |   0x7fffc000 |   0x7fffc000 |   0x7fffc000 |   0x7fffc000 |   0x7fffc000 |   0x7fffc000 |   0x7fffc000 |   0x7fffc000 |   0x7fffc000 |   0x7fffc000 |   0x7fffc000 |   0x7fffc000 |   0x7fffc000 |   0x7fffc000 |   0x7fffc000 |
ld_stack_size                                16384 |        16384 |        16384 |        16384 |        16384 |        16384 |        16384 |        16384 |        16384 |        16384 |        16384 |        16384 |        16384 |        16384 |        16384 |        16384 |        16384 |        16384 |        16384 |        16384 |        16384 |        16384 |        16384 |        16384 |        16384 |        16384 |        16384 |        16384 |        16384 |        16384 |        16384 |        16384 |        16384 |        16384 |        16384 |        16384 |        16384 |        16384 |        16384 |        16384 |        16384 |        16384 |        16384 |        16384 |
ld_prog_entry                           0x00400140 |   0x00400140 |   0x00400140 |   0x00400140 |   0x00400140 |   0x00400140 |   0x00400140 |   0x00400140 |   0x00400140 |   0x00400140 |   0x00400140 |   0x00400140 |   0x00400140 |   0x00400140 |   0x00400140 |   0x00400140 |   0x00400140 |   0x00400140 |   0x00400140 |   0x00400140 |   0x00400140 |   0x00400140 |   0x00400140 |   0x00400140 |   0x00400140 |   0x00400140 |   0x00400140 |   0x00400140 |   0x00400140 |   0x00400140 |   0x00400140 |   0x00400140 |   0x00400140 |   0x00400140 |   0x00400140 |   0x00400140 |   0x00400140 |   0x00400140 |   0x00400140 |   0x00400140 |   0x00400140 |   0x00400140 |   0x00400140 |   0x00400140 |
ld_environ_base                         0x7fff8000 |   0x7fff8000 |   0x7fff8000 |   0x7fff8000 |   0x7fff8000 |   0x7fff8000 |   0x7fff8000 |   0x7fff8000 |   0x7fff8000 |   0x7fff8000 |   0x7fff8000 |   0x7fff8000 |   0x7fff8000 |   0x7fff8000 |   0x7fff8000 |   0x7fff8000 |   0x7fff8000 |   0x7fff8000 |   0x7fff8000 |   0x7fff8000 |   0x7fff8000 |   0x7fff8000 |   0x7fff8000 |   0x7fff8000 |   0x7fff8000 |   0x7fff8000 |   0x7fff8000 |   0x7fff8000 |   0x7fff8000 |   0x7fff8000 |   0x7fff8000 |   0x7fff8000 |   0x7fff8000 |   0x7fff8000 |   0x7fff8000 |   0x7fff8000 |   0x7fff8000 |   0x7fff8000 |   0x7fff8000 |   0x7fff8000 |   0x7fff8000 |   0x7fff8000 |   0x7fff8000 |   0x7fff8000 |
ld_target_big_endian                             0 |            0 |            0 |            0 |            0 |            0 |            0 |            0 |            0 |            0 |            0 |            0 |            0 |            0 |            0 |            0 |            0 |            0 |            0 |            0 |            0 |            0 |            0 |            0 |            0 |            0 |            0 |            0 |            0 |            0 |            0 |            0 |            0 |            0 |            0 |            0 |            0 |            0 |            0 |            0 |            0 |            0 |            0 |            0 |
mem.page_count                                  40 |           40 |           40 |           40 |           48 |           48 |           48 |           48 |           64 |           64 |           64 |           64 |           96 |           96 |           96 |           96 |          160 |          160 |          160 |          160 |          288 |          288 |          288 |          288 |          544 |          544 |          544 |          544 |         1062 |         1062 |         1062 |         1062 |         2086 |         2086 |         2086 |         2086 |         4140 |         4140 |         4140 |         4140 |         8248 |         8248 |         8248 |         8248 |
mem.page_mem                                  160k |         160k |         160k |         160k |         192k |         192k |         192k |         192k |         256k |         256k |         256k |         256k |         384k |         384k |         384k |         384k |         640k |         640k |         640k |         640k |        1152k |        1152k |        1152k |        1152k |        2176k |        2176k |        2176k |        2176k |        4248k |        4248k |        4248k |        4248k |        8344k |        8344k |        8344k |        8344k |       16560k |       16560k |       16560k |       16560k |       32992k |       32992k |       32992k |       32992k |
mem.ptab_misses                                 40 |           40 |           40 |           40 |           48 |           48 |           48 |           48 |           64 |           64 |           64 |           64 |           96 |           96 |           96 |           96 |          160 |          160 |          160 |          160 |          288 |          288 |          288 |          288 |          544 |          544 |          544 |          544 |         1067 |         1067 |         1067 |         1067 |        79501 |        79501 |        79501 |        79501 |        89963 |        89963 |        89963 |        89963 |        85665 |        85665 |        85665 |        85665 |
mem.ptab_accesses                          4504478 |      4504478 |      4504478 |      4504478 |      8596278 |      8596278 |      8596278 |      8596278 |     18668708 |     18668708 |     18668708 |     18668708 |     37465680 |     37465680 |     37465680 |     37465680 |     82627820 |     82627820 |     82627820 |     82627820 |    167642452 |    167642452 |    167642452 |    167642452 |    354340798 |    354340798 |    354340798 |    354340798 |   1020335748 |   1020335748 |   1020335748 |   1020335748 |   2162257572 |   2162257572 |   2162257572 |   2162257572 |   4726747788 |   4726747788 |   4726747788 |   4726747788 |   9989328532 |   9989328532 |   9989328532 |   9989328532 |
mem.ptab_miss_rate                          0.0000 |       0.0000 |       0.0000 |       0.0000 |       0.0000 |       0.0000 |       0.0000 |       0.0000 |       0.0000 |       0.0000 |       0.0000 |       0.0000 |       0.0000 |       0.0000 |       0.0000 |       0.0000 |       0.0000 |       0.0000 |       0.0000 |       0.0000 |       0.0000 |       0.0000 |       0.0000 |       0.0000 |       0.0000 |       0.0000 |       0.0000 |       0.0000 |       0.0000 |       0.0000 |       0.0000 |       0.0000 |       0.0000 |       0.0000 |       0.0000 |       0.0000 |       0.0000 |       0.0000 |       0.0000 |       0.0000 |       0.0000 |       0.0000 |       0.0000 |       0.0000 |
-------------------------------------------------------------------------------------------------
sim-bpred                                     4096 |         4096 |         4096 |         4096 |         4096 |         4096 |         4096 |         8192 |         8192 |         8192 |         8192 |         8192 |         8192 |         8192 |        16384 |        16384 |        16384 |        16384 |        16384 |        16384 |        16384 |        32768 |        32768 |        32768 |        32768 |        32768 |        32768 |        32768 |        65536 |        65536 |        65536 |        65536 |        65536 |        65536 |        65536 |       131072 |       131072 |       131072 |       131072 |       131072 |       131072 |       131072 |       262144 |       262144 |       262144 |       262144 |       262144 |       262144 |       262144 |       524288 |       524288 |       524288 |       524288 |       524288 |       524288 |       524288 |      1048576 |      1048576 |      1048576 |      1048576 |      1048576 |      1048576 |      1048576 |      2097152 |      2097152 |      2097152 |      2097152 |      2097152 |      2097152 |      2097152 |      4194304 |      4194304 |      4194304 |      4194304 |      4194304 |      4194304 |      4194304 |
-bpred bimod -bpred:bimod 512
-bpred bimod -bpred:bimod 1024
-bpred bimod -bpred:bimod 2048
-bpred 2lev -bpred:2lev 1 512 10 1
-bpred 2lev -bpred:2lev 1 1024 10 1
-bpred 2lev -bpred:2lev 1 2048 10 1
-bpred 2lev -bpred:2lev 1 4096 10 1
-------------------------------------------------------------------------------------------------
sim_num_insn                                857891 |       857891 |       857891 |       857891 |       857891 |       857891 |       857891 |      1750852 |      1750852 |      1750852 |      1750852 |      1750852 |      1750852 |      1750852 |      3962469 |      3962469 |      3962469 |      3962469 |      3962469 |      3962469 |      3962469 |      8068939 |      8068939 |      8068939 |      8068939 |      8068939 |      8068939 |      8068939 |     17987126 |     17987126 |     17987126 |     17987126 |     17987126 |     17987126 |     17987126 |     36574775 |     36574775 |     36574775 |     36574775 |     36574775 |     36574775 |     36574775 |     77471315 |     77471315 |     77471315 |     77471315 |     77471315 |     77471315 |     77471315 |    223414399 |    223414399 |    223414399 |    223414399 |    223414399 |    223414399 |    223414399 |    473237326 |    473237326 |    473237326 |    473237326 |    473237326 |    473237326 |    473237326 |   1035748349 |   1035748349 |   1035748349 |   1035748349 |   1035748349 |   1035748349 |   1035748349 |   2186646719 |   2186646719 |   2186646719 |   2186646719 |   2186646719 |   2186646719 |   2186646719 |
sim_num_refs                                228574 |       228574 |       228574 |       228574 |       228574 |       228574 |       228574 |       472072 |       472072 |       472072 |       472072 |       472072 |       472072 |       472072 |      1052237 |      1052237 |      1052237 |      1052237 |      1052237 |      1052237 |      1052237 |      2172199 |      2172199 |      2172199 |      2172199 |      2172199 |      2172199 |      2172199 |      4785823 |      4785823 |      4785823 |      4785823 |      4785823 |      4785823 |      4785823 |      9855697 |      9855697 |      9855697 |      9855697 |      9855697 |      9855697 |      9855697 |     20887502 |     20887502 |     20887502 |     20887502 |     20887502 |     20887502 |     20887502 |     60950233 |     60950233 |     60950233 |     60950233 |     60950233 |     60950233 |     60950233 |    130168139 |    130168139 |    130168139 |    130168139 |    130168139 |    130168139 |    130168139 |    283196897 |    283196897 |    283196897 |    283196897 |    283196897 |    283196897 |    283196897 |    604301921 |    604301921 |    604301921 |    604301921 |    604301921 |    604301921 |    604301921 |
sim_elapsed_time                                 1 |            1 |            1 |            1 |            1 |            1 |            1 |            1 |            1 |            1 |            1 |            1 |            1 |            1 |            1 |            1 |            1 |            1 |            1 |            1 |            1 |            1 |            1 |            1 |            1 |            1 |            1 |            1 |            2 |            2 |            2 |            2 |            2 |            2 |            2 |            4 |            4 |            4 |            5 |            4 |            4 |            4 |            9 |            9 |            9 |            8 |            9 |            9 |            9 |           26 |           25 |           26 |           26 |           26 |           25 |           25 |           55 |           54 |           55 |           55 |           56 |           55 |           56 |          119 |          119 |          119 |          121 |          122 |          121 |          120 |          252 |          254 |          252 |          311 |          258 |          257 |          257 |
sim_inst_rate                          857891.0000 |  857891.0000 |  857891.0000 |  857891.0000 |  857891.0000 |  857891.0000 |  857891.0000 | 1750852.0000 | 1750852.0000 | 1750852.0000 | 1750852.0000 | 1750852.0000 | 1750852.0000 | 1750852.0000 | 3962469.0000 | 3962469.0000 | 3962469.0000 | 3962469.0000 | 3962469.0000 | 3962469.0000 | 3962469.0000 | 8068939.0000 | 8068939.0000 | 8068939.0000 | 8068939.0000 | 8068939.0000 | 8068939.0000 | 8068939.0000 | 8993563.0000 | 8993563.0000 | 8993563.0000 | 8993563.0000 | 8993563.0000 | 8993563.0000 | 8993563.0000 | 9143693.7500 | 9143693.7500 | 9143693.7500 | 7314955.0000 | 9143693.7500 | 9143693.7500 | 9143693.7500 | 8607923.8889 | 8607923.8889 | 8607923.8889 | 9683914.3750 | 8607923.8889 | 8607923.8889 | 8607923.8889 | 8592861.5000 | 8936575.9600 | 8592861.5000 | 8592861.5000 | 8592861.5000 | 8936575.9600 | 8936575.9600 | 8604315.0182 | 8763654.1852 | 8604315.0182 | 8604315.0182 | 8450666.5357 | 8604315.0182 | 8450666.5357 | 8703767.6387 | 8703767.6387 | 8703767.6387 | 8559903.7107 | 8489740.5656 | 8559903.7107 | 8631236.2417 | 8677169.5198 | 8608845.3504 | 8677169.5198 | 7031018.3891 | 8475374.8798 | 8508352.9922 | 8508352.9922 |
sim_num_branches                            112691 |       112691 |       112691 |       112691 |       112691 |       112691 |       112691 |       235896 |       235896 |       235896 |       235896 |       235896 |       235896 |       235896 |       515361 |       515361 |       515361 |       515361 |       515361 |       515361 |       515361 |      1072691 |      1072691 |      1072691 |      1072691 |      1072691 |      1072691 |      1072691 |      2320597 |      2320597 |      2320597 |      2320597 |      2320597 |      2320597 |      2320597 |      4812963 |      4812963 |      4812963 |      4812963 |      4812963 |      4812963 |      4812963 |     10150778 |     10150778 |     10150778 |     10150778 |     10150778 |     10150778 |     10150778 |     30682901 |     30682901 |     30682901 |     30682901 |     30682901 |     30682901 |     30682901 |     67187446 |     67187446 |     67187446 |     67187446 |     67187446 |     67187446 |     67187446 |    145972534 |    145972534 |    145972534 |    145972534 |    145972534 |    145972534 |    145972534 |    314549617 |    314549617 |    314549617 |    314549617 |    314549617 |    314549617 |    314549617 |
sim_IPB                                     7.6128 |       7.6128 |       7.6128 |       7.6128 |       7.6128 |       7.6128 |       7.6128 |       7.4221 |       7.4221 |       7.4221 |       7.4221 |       7.4221 |       7.4221 |       7.4221 |       7.6887 |       7.6887 |       7.6887 |       7.6887 |       7.6887 |       7.6887 |       7.6887 |       7.5221 |       7.5221 |       7.5221 |       7.5221 |       7.5221 |       7.5221 |       7.5221 |       7.7511 |       7.7511 |       7.7511 |       7.7511 |       7.7511 |       7.7511 |       7.7511 |       7.5992 |       7.5992 |       7.5992 |       7.5992 |       7.5992 |       7.5992 |       7.5992 |       7.6321 |       7.6321 |       7.6321 |       7.6321 |       7.6321 |       7.6321 |       7.6321 |       7.2814 |       7.2814 |       7.2814 |       7.2814 |       7.2814 |       7.2814 |       7.2814 |       7.0435 |       7.0435 |       7.0435 |       7.0435 |       7.0435 |       7.0435 |       7.0435 |       7.0955 |       7.0955 |       7.0955 |       7.0955 |       7.0955 |       7.0955 |       7.0955 |       6.9517 |       6.9517 |       6.9517 |       6.9517 |       6.9517 |       6.9517 |       6.9517 |
bpred_bimod.lookups                         112691 |       112691 |       112691 |xxxxxxxxxxxxx |xxxxxxxxxxxxx |xxxxxxxxxxxxx |xxxxxxxxxxxxx |       235896 |       235896 |       235896 |xxxxxxxxxxxxx |xxxxxxxxxxxxx |xxxxxxxxxxxxx |xxxxxxxxxxxxx |       515361 |       515361 |       515361 |xxxxxxxxxxxxx |xxxxxxxxxxxxx |xxxxxxxxxxxxx |xxxxxxxxxxxxx |      1072691 |      1072691 |      1072691 |xxxxxxxxxxxxx |xxxxxxxxxxxxx |xxxxxxxxxxxxx |xxxxxxxxxxxxx |      2320597 |      2320597 |      2320597 |xxxxxxxxxxxxx |xxxxxxxxxxxxx |xxxxxxxxxxxxx |xxxxxxxxxxxxx |      4812963 |      4812963 |      4812963 |xxxxxxxxxxxxx |xxxxxxxxxxxxx |xxxxxxxxxxxxx |xxxxxxxxxxxxx |     10150778 |     10150778 |     10150778 |xxxxxxxxxxxxx |xxxxxxxxxxxxx |xxxxxxxxxxxxx |xxxxxxxxxxxxx |     30682901 |     30682901 |     30682901 |xxxxxxxxxxxxx |xxxxxxxxxxxxx |xxxxxxxxxxxxx |xxxxxxxxxxxxx |     67187446 |     67187446 |     67187446 |xxxxxxxxxxxxx |xxxxxxxxxxxxx |xxxxxxxxxxxxx |xxxxxxxxxxxxx |    145972534 |    145972534 |    145972534 |xxxxxxxxxxxxx |xxxxxxxxxxxxx |xxxxxxxxxxxxx |xxxxxxxxxxxxx |    314549617 |    314549617 |    314549617 |
bpred_bimod.updates                         112691 |       112691 |       112691 |xxxxxxxxxxxxx |xxxxxxxxxxxxx |xxxxxxxxxxxxx |xxxxxxxxxxxxx |       235896 |       235896 |       235896 |xxxxxxxxxxxxx |xxxxxxxxxxxxx |xxxxxxxxxxxxx |xxxxxxxxxxxxx |       515361 |       515361 |       515361 |xxxxxxxxxxxxx |xxxxxxxxxxxxx |xxxxxxxxxxxxx |xxxxxxxxxxxxx |      1072691 |      1072691 |      1072691 |xxxxxxxxxxxxx |xxxxxxxxxxxxx |xxxxxxxxxxxxx |xxxxxxxxxxxxx |      2320597 |      2320597 |      2320597 |xxxxxxxxxxxxx |xxxxxxxxxxxxx |xxxxxxxxxxxxx |xxxxxxxxxxxxx |      4812963 |      4812963 |      4812963 |xxxxxxxxxxxxx |xxxxxxxxxxxxx |xxxxxxxxxxxxx |xxxxxxxxxxxxx |     10150778 |     10150778 |     10150778 |xxxxxxxxxxxxx |xxxxxxxxxxxxx |xxxxxxxxxxxxx |xxxxxxxxxxxxx |     30682901 |     30682901 |     30682901 |xxxxxxxxxxxxx |xxxxxxxxxxxxx |xxxxxxxxxxxxx |xxxxxxxxxxxxx |     67187446 |     67187446 |     67187446 |xxxxxxxxxxxxx |xxxxxxxxxxxxx |xxxxxxxxxxxxx |xxxxxxxxxxxxx |    145972534 |    145972534 |    145972534 |xxxxxxxxxxxxx |xxxxxxxxxxxxx |xxxxxxxxxxxxx |xxxxxxxxxxxxx |    314549617 |    314549617 |    314549617 |
bpred_bimod.addr_hits                        86771 |        86781 |        86786 |xxxxxxxxxxxxx |xxxxxxxxxxxxx |xxxxxxxxxxxxx |xxxxxxxxxxxxx |       183921 |       183928 |       183931 |xxxxxxxxxxxxx |xxxxxxxxxxxxx |xxxxxxxxxxxxx |xxxxxxxxxxxxx |       396753 |       396771 |       396776 |xxxxxxxxxxxxx |xxxxxxxxxxxxx |xxxxxxxxxxxxx |xxxxxxxxxxxxx |       833499 |       833512 |       833516 |xxxxxxxxxxxxx |xxxxxxxxxxxxx |xxxxxxxxxxxxx |xxxxxxxxxxxxx |      1781814 |      1781883 |      1781887 |xxxxxxxxxxxxx |xxxxxxxxxxxxx |xxxxxxxxxxxxx |xxxxxxxxxxxxx |      3725971 |      3726012 |      3726016 |xxxxxxxxxxxxx |xxxxxxxxxxxxx |xxxxxxxxxxxxx |xxxxxxxxxxxxx |      7846590 |      7846678 |      7846748 |xxxxxxxxxxxxx |xxxxxxxxxxxxx |xxxxxxxxxxxxx |xxxxxxxxxxxxx |     24450202 |     24450754 |     24450756 |xxxxxxxxxxxxx |xxxxxxxxxxxxx |xxxxxxxxxxxxx |xxxxxxxxxxxxx |     54432283 |     54432635 |     54432642 |xxxxxxxxxxxxx |xxxxxxxxxxxxx |xxxxxxxxxxxxx |xxxxxxxxxxxxx |    116890198 |    116892354 |    116892356 |xxxxxxxxxxxxx |xxxxxxxxxxxxx |xxxxxxxxxxxxx |xxxxxxxxxxxxx |    252094989 |    252096374 |    252096361 |
bpred_bimod.dir_hits                         86925 |        86934 |        86938 |xxxxxxxxxxxxx |xxxxxxxxxxxxx |xxxxxxxxxxxxx |xxxxxxxxxxxxx |       184076 |       184080 |       184083 |xxxxxxxxxxxxx |xxxxxxxxxxxxx |xxxxxxxxxxxxx |xxxxxxxxxxxxx |       396909 |       396922 |       396927 |xxxxxxxxxxxxx |xxxxxxxxxxxxx |xxxxxxxxxxxxx |xxxxxxxxxxxxx |       833651 |       833664 |       833668 |xxxxxxxxxxxxx |xxxxxxxxxxxxx |xxxxxxxxxxxxx |xxxxxxxxxxxxx |      1781966 |      1782035 |      1782038 |xxxxxxxxxxxxx |xxxxxxxxxxxxx |xxxxxxxxxxxxx |xxxxxxxxxxxxx |      3726124 |      3726165 |      3726169 |xxxxxxxxxxxxx |xxxxxxxxxxxxx |xxxxxxxxxxxxx |xxxxxxxxxxxxx |      7846745 |      7846833 |      7846904 |xxxxxxxxxxxxx |xxxxxxxxxxxxx |xxxxxxxxxxxxx |xxxxxxxxxxxxx |     24450433 |     24450982 |     24450982 |xxxxxxxxxxxxx |xxxxxxxxxxxxx |xxxxxxxxxxxxx |xxxxxxxxxxxxx |     54432523 |     54432872 |     54432875 |xxxxxxxxxxxxx |xxxxxxxxxxxxx |xxxxxxxxxxxxx |xxxxxxxxxxxxx |    116890438 |    116892591 |    116892590 |xxxxxxxxxxxxx |xxxxxxxxxxxxx |xxxxxxxxxxxxx |xxxxxxxxxxxxx |    252095231 |    252096612 |    252096597 |
bpred_bimod.misses                           25766 |        25757 |        25753 |xxxxxxxxxxxxx |xxxxxxxxxxxxx |xxxxxxxxxxxxx |xxxxxxxxxxxxx |        51820 |        51816 |        51813 |xxxxxxxxxxxxx |xxxxxxxxxxxxx |xxxxxxxxxxxxx |xxxxxxxxxxxxx |       118452 |       118439 |       118434 |xxxxxxxxxxxxx |xxxxxxxxxxxxx |xxxxxxxxxxxxx |xxxxxxxxxxxxx |       239040 |       239027 |       239023 |xxxxxxxxxxxxx |xxxxxxxxxxxxx |xxxxxxxxxxxxx |xxxxxxxxxxxxx |       538631 |       538562 |       538559 |xxxxxxxxxxxxx |xxxxxxxxxxxxx |xxxxxxxxxxxxx |xxxxxxxxxxxxx |      1086839 |      1086798 |      1086794 |xxxxxxxxxxxxx |xxxxxxxxxxxxx |xxxxxxxxxxxxx |xxxxxxxxxxxxx |      2304033 |      2303945 |      2303874 |xxxxxxxxxxxxx |xxxxxxxxxxxxx |xxxxxxxxxxxxx |xxxxxxxxxxxxx |      6232468 |      6231919 |      6231919 |xxxxxxxxxxxxx |xxxxxxxxxxxxx |xxxxxxxxxxxxx |xxxxxxxxxxxxx |     12754923 |     12754574 |     12754571 |xxxxxxxxxxxxx |xxxxxxxxxxxxx |xxxxxxxxxxxxx |xxxxxxxxxxxxx |     29082096 |     29079943 |     29079944 |xxxxxxxxxxxxx |xxxxxxxxxxxxx |xxxxxxxxxxxxx |xxxxxxxxxxxxx |     62454386 |     62453005 |     62453020 |
bpred_bimod.jr_hits                             79 |           79 |           79 |xxxxxxxxxxxxx |xxxxxxxxxxxxx |xxxxxxxxxxxxx |xxxxxxxxxxxxx |           87 |           87 |           87 |xxxxxxxxxxxxx |xxxxxxxxxxxxx |xxxxxxxxxxxxx |xxxxxxxxxxxxx |          103 |          103 |          103 |xxxxxxxxxxxxx |xxxxxxxxxxxxx |xxxxxxxxxxxxx |xxxxxxxxxxxxx |          135 |          135 |          135 |xxxxxxxxxxxxx |xxxxxxxxxxxxx |xxxxxxxxxxxxx |xxxxxxxxxxxxx |          199 |          199 |          199 |xxxxxxxxxxxxx |xxxxxxxxxxxxx |xxxxxxxxxxxxx |xxxxxxxxxxxxx |          327 |          327 |          327 |xxxxxxxxxxxxx |xxxxxxxxxxxxx |xxxxxxxxxxxxx |xxxxxxxxxxxxx |          583 |          583 |          583 |xxxxxxxxxxxxx |xxxxxxxxxxxxx |xxxxxxxxxxxxx |xxxxxxxxxxxxx |       525413 |       525413 |       525413 |xxxxxxxxxxxxx |xxxxxxxxxxxxx |xxxxxxxxxxxxx |xxxxxxxxxxxxx |      1050727 |      1050727 |      1050727 |xxxxxxxxxxxxx |xxxxxxxxxxxxx |xxxxxxxxxxxxx |xxxxxxxxxxxxx |      2101355 |      2101355 |      2101355 |xxxxxxxxxxxxx |xxxxxxxxxxxxx |xxxxxxxxxxxxx |xxxxxxxxxxxxx |      4202611 |      4202611 |      4202611 |
bpred_bimod.jr_seen                             80 |           80 |           80 |xxxxxxxxxxxxx |xxxxxxxxxxxxx |xxxxxxxxxxxxx |xxxxxxxxxxxxx |           88 |           88 |           88 |xxxxxxxxxxxxx |xxxxxxxxxxxxx |xxxxxxxxxxxxx |xxxxxxxxxxxxx |          104 |          104 |          104 |xxxxxxxxxxxxx |xxxxxxxxxxxxx |xxxxxxxxxxxxx |xxxxxxxxxxxxx |          136 |          136 |          136 |xxxxxxxxxxxxx |xxxxxxxxxxxxx |xxxxxxxxxxxxx |xxxxxxxxxxxxx |          200 |          200 |          200 |xxxxxxxxxxxxx |xxxxxxxxxxxxx |xxxxxxxxxxxxx |xxxxxxxxxxxxx |          328 |          328 |          328 |xxxxxxxxxxxxx |xxxxxxxxxxxxx |xxxxxxxxxxxxx |xxxxxxxxxxxxx |          584 |          584 |          584 |xxxxxxxxxxxxx |xxxxxxxxxxxxx |xxxxxxxxxxxxx |xxxxxxxxxxxxx |       525414 |       525414 |       525414 |xxxxxxxxxxxxx |xxxxxxxxxxxxx |xxxxxxxxxxxxx |xxxxxxxxxxxxx |      1050728 |      1050728 |      1050728 |xxxxxxxxxxxxx |xxxxxxxxxxxxx |xxxxxxxxxxxxx |xxxxxxxxxxxxx |      2101356 |      2101356 |      2101356 |xxxxxxxxxxxxx |xxxxxxxxxxxxx |xxxxxxxxxxxxx |xxxxxxxxxxxxx |      4202612 |      4202612 |      4202612 |
bpred_bimod.jr_non_ras_hits.PP                   0 |            0 |            0 |xxxxxxxxxxxxx |xxxxxxxxxxxxx |xxxxxxxxxxxxx |xxxxxxxxxxxxx |            0 |            0 |            0 |xxxxxxxxxxxxx |xxxxxxxxxxxxx |xxxxxxxxxxxxx |xxxxxxxxxxxxx |            0 |            0 |            0 |xxxxxxxxxxxxx |xxxxxxxxxxxxx |xxxxxxxxxxxxx |xxxxxxxxxxxxx |            0 |            0 |            0 |xxxxxxxxxxxxx |xxxxxxxxxxxxx |xxxxxxxxxxxxx |xxxxxxxxxxxxx |            0 |            0 |            0 |xxxxxxxxxxxxx |xxxxxxxxxxxxx |xxxxxxxxxxxxx |xxxxxxxxxxxxx |            0 |            0 |            0 |xxxxxxxxxxxxx |xxxxxxxxxxxxx |xxxxxxxxxxxxx |xxxxxxxxxxxxx |            0 |            0 |            0 |xxxxxxxxxxxxx |xxxxxxxxxxxxx |xxxxxxxxxxxxx |xxxxxxxxxxxxx |            0 |            0 |            0 |xxxxxxxxxxxxx |xxxxxxxxxxxxx |xxxxxxxxxxxxx |xxxxxxxxxxxxx |            0 |            0 |            0 |xxxxxxxxxxxxx |xxxxxxxxxxxxx |xxxxxxxxxxxxx |xxxxxxxxxxxxx |            0 |            0 |            0 |xxxxxxxxxxxxx |xxxxxxxxxxxxx |xxxxxxxxxxxxx |xxxxxxxxxxxxx |            0 |            0 |            0 |
bpred_bimod.jr_non_ras_seen.PP                   0 |            0 |            0 |xxxxxxxxxxxxx |xxxxxxxxxxxxx |xxxxxxxxxxxxx |xxxxxxxxxxxxx |            0 |            0 |            0 |xxxxxxxxxxxxx |xxxxxxxxxxxxx |xxxxxxxxxxxxx |xxxxxxxxxxxxx |            0 |            0 |            0 |xxxxxxxxxxxxx |xxxxxxxxxxxxx |xxxxxxxxxxxxx |xxxxxxxxxxxxx |            0 |            0 |            0 |xxxxxxxxxxxxx |xxxxxxxxxxxxx |xxxxxxxxxxxxx |xxxxxxxxxxxxx |            0 |            0 |            0 |xxxxxxxxxxxxx |xxxxxxxxxxxxx |xxxxxxxxxxxxx |xxxxxxxxxxxxx |            0 |            0 |            0 |xxxxxxxxxxxxx |xxxxxxxxxxxxx |xxxxxxxxxxxxx |xxxxxxxxxxxxx |            0 |            0 |            0 |xxxxxxxxxxxxx |xxxxxxxxxxxxx |xxxxxxxxxxxxx |xxxxxxxxxxxxx |            1 |            1 |            1 |xxxxxxxxxxxxx |xxxxxxxxxxxxx |xxxxxxxxxxxxx |xxxxxxxxxxxxx |            1 |            1 |            1 |xxxxxxxxxxxxx |xxxxxxxxxxxxx |xxxxxxxxxxxxx |xxxxxxxxxxxxx |            1 |            1 |            1 |xxxxxxxxxxxxx |xxxxxxxxxxxxx |xxxxxxxxxxxxx |xxxxxxxxxxxxx |            1 |            1 |            1 |
bpred_bimod.bpred_addr_rate                 0.7700 |       0.7701 |       0.7701 |xxxxxxxxxxxxx |xxxxxxxxxxxxx |xxxxxxxxxxxxx |xxxxxxxxxxxxx |       0.7797 |       0.7797 |       0.7797 |xxxxxxxxxxxxx |xxxxxxxxxxxxx |xxxxxxxxxxxxx |xxxxxxxxxxxxx |       0.7699 |       0.7699 |       0.7699 |xxxxxxxxxxxxx |xxxxxxxxxxxxx |xxxxxxxxxxxxx |xxxxxxxxxxxxx |       0.7770 |       0.7770 |       0.7770 |xxxxxxxxxxxxx |xxxxxxxxxxxxx |xxxxxxxxxxxxx |xxxxxxxxxxxxx |       0.7678 |       0.7679 |       0.7679 |xxxxxxxxxxxxx |xxxxxxxxxxxxx |xxxxxxxxxxxxx |xxxxxxxxxxxxx |       0.7742 |       0.7742 |       0.7742 |xxxxxxxxxxxxx |xxxxxxxxxxxxx |xxxxxxxxxxxxx |xxxxxxxxxxxxx |       0.7730 |       0.7730 |       0.7730 |xxxxxxxxxxxxx |xxxxxxxxxxxxx |xxxxxxxxxxxxx |xxxxxxxxxxxxx |       0.7969 |       0.7969 |       0.7969 |xxxxxxxxxxxxx |xxxxxxxxxxxxx |xxxxxxxxxxxxx |xxxxxxxxxxxxx |       0.8102 |       0.8102 |       0.8102 |xxxxxxxxxxxxx |xxxxxxxxxxxxx |xxxxxxxxxxxxx |xxxxxxxxxxxxx |       0.8008 |       0.8008 |       0.8008 |xxxxxxxxxxxxx |xxxxxxxxxxxxx |xxxxxxxxxxxxx |xxxxxxxxxxxxx |       0.8014 |       0.8015 |       0.8015 |
bpred_bimod.bpred_dir_rate                  0.7714 |       0.7714 |       0.7715 |xxxxxxxxxxxxx |xxxxxxxxxxxxx |xxxxxxxxxxxxx |xxxxxxxxxxxxx |       0.7803 |       0.7803 |       0.7804 |xxxxxxxxxxxxx |xxxxxxxxxxxxx |xxxxxxxxxxxxx |xxxxxxxxxxxxx |       0.7702 |       0.7702 |       0.7702 |xxxxxxxxxxxxx |xxxxxxxxxxxxx |xxxxxxxxxxxxx |xxxxxxxxxxxxx |       0.7772 |       0.7772 |       0.7772 |xxxxxxxxxxxxx |xxxxxxxxxxxxx |xxxxxxxxxxxxx |xxxxxxxxxxxxx |       0.7679 |       0.7679 |       0.7679 |xxxxxxxxxxxxx |xxxxxxxxxxxxx |xxxxxxxxxxxxx |xxxxxxxxxxxxx |       0.7742 |       0.7742 |       0.7742 |xxxxxxxxxxxxx |xxxxxxxxxxxxx |xxxxxxxxxxxxx |xxxxxxxxxxxxx |       0.7730 |       0.7730 |       0.7730 |xxxxxxxxxxxxx |xxxxxxxxxxxxx |xxxxxxxxxxxxx |xxxxxxxxxxxxx |       0.7969 |       0.7969 |       0.7969 |xxxxxxxxxxxxx |xxxxxxxxxxxxx |xxxxxxxxxxxxx |xxxxxxxxxxxxx |       0.8102 |       0.8102 |       0.8102 |xxxxxxxxxxxxx |xxxxxxxxxxxxx |xxxxxxxxxxxxx |xxxxxxxxxxxxx |       0.8008 |       0.8008 |       0.8008 |xxxxxxxxxxxxx |xxxxxxxxxxxxx |xxxxxxxxxxxxx |xxxxxxxxxxxxx |       0.8014 |       0.8015 |       0.8015 |
bpred_bimod.bpred_jr_rate                   0.9875 |       0.9875 |       0.9875 |xxxxxxxxxxxxx |xxxxxxxxxxxxx |xxxxxxxxxxxxx |xxxxxxxxxxxxx |       0.9886 |       0.9886 |       0.9886 |xxxxxxxxxxxxx |xxxxxxxxxxxxx |xxxxxxxxxxxxx |xxxxxxxxxxxxx |       0.9904 |       0.9904 |       0.9904 |xxxxxxxxxxxxx |xxxxxxxxxxxxx |xxxxxxxxxxxxx |xxxxxxxxxxxxx |       0.9926 |       0.9926 |       0.9926 |xxxxxxxxxxxxx |xxxxxxxxxxxxx |xxxxxxxxxxxxx |xxxxxxxxxxxxx |       0.9950 |       0.9950 |       0.9950 |xxxxxxxxxxxxx |xxxxxxxxxxxxx |xxxxxxxxxxxxx |xxxxxxxxxxxxx |       0.9970 |       0.9970 |       0.9970 |xxxxxxxxxxxxx |xxxxxxxxxxxxx |xxxxxxxxxxxxx |xxxxxxxxxxxxx |       0.9983 |       0.9983 |       0.9983 |xxxxxxxxxxxxx |xxxxxxxxxxxxx |xxxxxxxxxxxxx |xxxxxxxxxxxxx |       1.0000 |       1.0000 |       1.0000 |xxxxxxxxxxxxx |xxxxxxxxxxxxx |xxxxxxxxxxxxx |xxxxxxxxxxxxx |       1.0000 |       1.0000 |       1.0000 |xxxxxxxxxxxxx |xxxxxxxxxxxxx |xxxxxxxxxxxxx |xxxxxxxxxxxxx |       1.0000 |       1.0000 |       1.0000 |xxxxxxxxxxxxx |xxxxxxxxxxxxx |xxxxxxxxxxxxx |xxxxxxxxxxxxx |       1.0000 |       1.0000 |       1.0000 |
bpred_bimod.bpred_jr_non_ras_rate.PP       <error: |      <error: |      <error: |xxxxxxxxxxxxx |xxxxxxxxxxxxx |xxxxxxxxxxxxx |xxxxxxxxxxxxx |      <error: |      <error: |      <error: |xxxxxxxxxxxxx |xxxxxxxxxxxxx |xxxxxxxxxxxxx |xxxxxxxxxxxxx |      <error: |      <error: |      <error: |xxxxxxxxxxxxx |xxxxxxxxxxxxx |xxxxxxxxxxxxx |xxxxxxxxxxxxx |      <error: |      <error: |      <error: |xxxxxxxxxxxxx |xxxxxxxxxxxxx |xxxxxxxxxxxxx |xxxxxxxxxxxxx |      <error: |      <error: |      <error: |xxxxxxxxxxxxx |xxxxxxxxxxxxx |xxxxxxxxxxxxx |xxxxxxxxxxxxx |      <error: |      <error: |      <error: |xxxxxxxxxxxxx |xxxxxxxxxxxxx |xxxxxxxxxxxxx |xxxxxxxxxxxxx |      <error: |      <error: |      <error: |xxxxxxxxxxxxx |xxxxxxxxxxxxx |xxxxxxxxxxxxx |xxxxxxxxxxxxx |       0.0000 |       0.0000 |       0.0000 |xxxxxxxxxxxxx |xxxxxxxxxxxxx |xxxxxxxxxxxxx |xxxxxxxxxxxxx |       0.0000 |       0.0000 |       0.0000 |xxxxxxxxxxxxx |xxxxxxxxxxxxx |xxxxxxxxxxxxx |xxxxxxxxxxxxx |       0.0000 |       0.0000 |       0.0000 |xxxxxxxxxxxxx |xxxxxxxxxxxxx |xxxxxxxxxxxxx |xxxxxxxxxxxxx |       0.0000 |       0.0000 |       0.0000 |
bpred_bimod.retstack_pushes                     82 |           82 |           82 |xxxxxxxxxxxxx |xxxxxxxxxxxxx |xxxxxxxxxxxxx |xxxxxxxxxxxxx |           90 |           90 |           90 |xxxxxxxxxxxxx |xxxxxxxxxxxxx |xxxxxxxxxxxxx |xxxxxxxxxxxxx |          106 |          106 |          106 |xxxxxxxxxxxxx |xxxxxxxxxxxxx |xxxxxxxxxxxxx |xxxxxxxxxxxxx |          138 |          138 |          138 |xxxxxxxxxxxxx |xxxxxxxxxxxxx |xxxxxxxxxxxxx |xxxxxxxxxxxxx |          202 |          202 |          202 |xxxxxxxxxxxxx |xxxxxxxxxxxxx |xxxxxxxxxxxxx |xxxxxxxxxxxxx |          330 |          330 |          330 |xxxxxxxxxxxxx |xxxxxxxxxxxxx |xxxxxxxxxxxxx |xxxxxxxxxxxxx |          586 |          586 |          586 |xxxxxxxxxxxxx |xxxxxxxxxxxxx |xxxxxxxxxxxxx |xxxxxxxxxxxxx |       525415 |       525415 |       525415 |xxxxxxxxxxxxx |xxxxxxxxxxxxx |xxxxxxxxxxxxx |xxxxxxxxxxxxx |      1050729 |      1050729 |      1050729 |xxxxxxxxxxxxx |xxxxxxxxxxxxx |xxxxxxxxxxxxx |xxxxxxxxxxxxx |      2101357 |      2101357 |      2101357 |xxxxxxxxxxxxx |xxxxxxxxxxxxx |xxxxxxxxxxxxx |xxxxxxxxxxxxx |      4202613 |      4202613 |      4202613 |
bpred_bimod.retstack_pops                       80 |           80 |           80 |xxxxxxxxxxxxx |xxxxxxxxxxxxx |xxxxxxxxxxxxx |xxxxxxxxxxxxx |           88 |           88 |           88 |xxxxxxxxxxxxx |xxxxxxxxxxxxx |xxxxxxxxxxxxx |xxxxxxxxxxxxx |          104 |          104 |          104 |xxxxxxxxxxxxx |xxxxxxxxxxxxx |xxxxxxxxxxxxx |xxxxxxxxxxxxx |          136 |          136 |          136 |xxxxxxxxxxxxx |xxxxxxxxxxxxx |xxxxxxxxxxxxx |xxxxxxxxxxxxx |          200 |          200 |          200 |xxxxxxxxxxxxx |xxxxxxxxxxxxx |xxxxxxxxxxxxx |xxxxxxxxxxxxx |          328 |          328 |          328 |xxxxxxxxxxxxx |xxxxxxxxxxxxx |xxxxxxxxxxxxx |xxxxxxxxxxxxx |          584 |          584 |          584 |xxxxxxxxxxxxx |xxxxxxxxxxxxx |xxxxxxxxxxxxx |xxxxxxxxxxxxx |       525413 |       525413 |       525413 |xxxxxxxxxxxxx |xxxxxxxxxxxxx |xxxxxxxxxxxxx |xxxxxxxxxxxxx |      1050727 |      1050727 |      1050727 |xxxxxxxxxxxxx |xxxxxxxxxxxxx |xxxxxxxxxxxxx |xxxxxxxxxxxxx |      2101355 |      2101355 |      2101355 |xxxxxxxxxxxxx |xxxxxxxxxxxxx |xxxxxxxxxxxxx |xxxxxxxxxxxxx |      4202611 |      4202611 |      4202611 |
bpred_bimod.used_ras.PP                         80 |           80 |           80 |xxxxxxxxxxxxx |xxxxxxxxxxxxx |xxxxxxxxxxxxx |xxxxxxxxxxxxx |           88 |           88 |           88 |xxxxxxxxxxxxx |xxxxxxxxxxxxx |xxxxxxxxxxxxx |xxxxxxxxxxxxx |          104 |          104 |          104 |xxxxxxxxxxxxx |xxxxxxxxxxxxx |xxxxxxxxxxxxx |xxxxxxxxxxxxx |          136 |          136 |          136 |xxxxxxxxxxxxx |xxxxxxxxxxxxx |xxxxxxxxxxxxx |xxxxxxxxxxxxx |          200 |          200 |          200 |xxxxxxxxxxxxx |xxxxxxxxxxxxx |xxxxxxxxxxxxx |xxxxxxxxxxxxx |          328 |          328 |          328 |xxxxxxxxxxxxx |xxxxxxxxxxxxx |xxxxxxxxxxxxx |xxxxxxxxxxxxx |          584 |          584 |          584 |xxxxxxxxxxxxx |xxxxxxxxxxxxx |xxxxxxxxxxxxx |xxxxxxxxxxxxx |       525413 |       525413 |       525413 |xxxxxxxxxxxxx |xxxxxxxxxxxxx |xxxxxxxxxxxxx |xxxxxxxxxxxxx |      1050727 |      1050727 |      1050727 |xxxxxxxxxxxxx |xxxxxxxxxxxxx |xxxxxxxxxxxxx |xxxxxxxxxxxxx |      2101355 |      2101355 |      2101355 |xxxxxxxxxxxxx |xxxxxxxxxxxxx |xxxxxxxxxxxxx |xxxxxxxxxxxxx |      4202611 |      4202611 |      4202611 |
bpred_bimod.ras_hits.PP                         79 |           79 |           79 |xxxxxxxxxxxxx |xxxxxxxxxxxxx |xxxxxxxxxxxxx |xxxxxxxxxxxxx |           87 |           87 |           87 |xxxxxxxxxxxxx |xxxxxxxxxxxxx |xxxxxxxxxxxxx |xxxxxxxxxxxxx |          103 |          103 |          103 |xxxxxxxxxxxxx |xxxxxxxxxxxxx |xxxxxxxxxxxxx |xxxxxxxxxxxxx |          135 |          135 |          135 |xxxxxxxxxxxxx |xxxxxxxxxxxxx |xxxxxxxxxxxxx |xxxxxxxxxxxxx |          199 |          199 |          199 |xxxxxxxxxxxxx |xxxxxxxxxxxxx |xxxxxxxxxxxxx |xxxxxxxxxxxxx |          327 |          327 |          327 |xxxxxxxxxxxxx |xxxxxxxxxxxxx |xxxxxxxxxxxxx |xxxxxxxxxxxxx |          583 |          583 |          583 |xxxxxxxxxxxxx |xxxxxxxxxxxxx |xxxxxxxxxxxxx |xxxxxxxxxxxxx |       525413 |       525413 |       525413 |xxxxxxxxxxxxx |xxxxxxxxxxxxx |xxxxxxxxxxxxx |xxxxxxxxxxxxx |      1050727 |      1050727 |      1050727 |xxxxxxxxxxxxx |xxxxxxxxxxxxx |xxxxxxxxxxxxx |xxxxxxxxxxxxx |      2101355 |      2101355 |      2101355 |xxxxxxxxxxxxx |xxxxxxxxxxxxx |xxxxxxxxxxxxx |xxxxxxxxxxxxx |      4202611 |      4202611 |      4202611 |
bpred_bimod.ras_rate.PP                     0.9875 |       0.9875 |       0.9875 |xxxxxxxxxxxxx |xxxxxxxxxxxxx |xxxxxxxxxxxxx |xxxxxxxxxxxxx |       0.9886 |       0.9886 |       0.9886 |xxxxxxxxxxxxx |xxxxxxxxxxxxx |xxxxxxxxxxxxx |xxxxxxxxxxxxx |       0.9904 |       0.9904 |       0.9904 |xxxxxxxxxxxxx |xxxxxxxxxxxxx |xxxxxxxxxxxxx |xxxxxxxxxxxxx |       0.9926 |       0.9926 |       0.9926 |xxxxxxxxxxxxx |xxxxxxxxxxxxx |xxxxxxxxxxxxx |xxxxxxxxxxxxx |       0.9950 |       0.9950 |       0.9950 |xxxxxxxxxxxxx |xxxxxxxxxxxxx |xxxxxxxxxxxxx |xxxxxxxxxxxxx |       0.9970 |       0.9970 |       0.9970 |xxxxxxxxxxxxx |xxxxxxxxxxxxx |xxxxxxxxxxxxx |xxxxxxxxxxxxx |       0.9983 |       0.9983 |       0.9983 |xxxxxxxxxxxxx |xxxxxxxxxxxxx |xxxxxxxxxxxxx |xxxxxxxxxxxxx |       1.0000 |       1.0000 |       1.0000 |xxxxxxxxxxxxx |xxxxxxxxxxxxx |xxxxxxxxxxxxx |xxxxxxxxxxxxx |       1.0000 |       1.0000 |       1.0000 |xxxxxxxxxxxxx |xxxxxxxxxxxxx |xxxxxxxxxxxxx |xxxxxxxxxxxxx |       1.0000 |       1.0000 |       1.0000 |xxxxxxxxxxxxx |xxxxxxxxxxxxx |xxxxxxxxxxxxx |xxxxxxxxxxxxx |       1.0000 |       1.0000 |       1.0000 |
bpred_2lev.lookups                   xxxxxxxxxxxxx |xxxxxxxxxxxxx |xxxxxxxxxxxxx |       112691 |       112691 |       112691 |       112691 |xxxxxxxxxxxxx |xxxxxxxxxxxxx |xxxxxxxxxxxxx |       235896 |       235896 |       235896 |       235896 |xxxxxxxxxxxxx |xxxxxxxxxxxxx |xxxxxxxxxxxxx |       515361 |       515361 |       515361 |       515361 |xxxxxxxxxxxxx |xxxxxxxxxxxxx |xxxxxxxxxxxxx |      1072691 |      1072691 |      1072691 |      1072691 |xxxxxxxxxxxxx |xxxxxxxxxxxxx |xxxxxxxxxxxxx |      2320597 |      2320597 |      2320597 |      2320597 |xxxxxxxxxxxxx |xxxxxxxxxxxxx |xxxxxxxxxxxxx |      4812963 |      4812963 |      4812963 |      4812963 |xxxxxxxxxxxxx |xxxxxxxxxxxxx |xxxxxxxxxxxxx |     10150778 |     10150778 |     10150778 |     10150778 |xxxxxxxxxxxxx |xxxxxxxxxxxxx |xxxxxxxxxxxxx |     30682901 |     30682901 |     30682901 |     30682901 |xxxxxxxxxxxxx |xxxxxxxxxxxxx |xxxxxxxxxxxxx |     67187446 |     67187446 |     67187446 |     67187446 |xxxxxxxxxxxxx |xxxxxxxxxxxxx |xxxxxxxxxxxxx |    145972534 |    145972534 |    145972534 |    145972534 |xxxxxxxxxxxxx |xxxxxxxxxxxxx |xxxxxxxxxxxxx |    314549617 |    314549617 |    314549617 |    314549617 |
[...]
bpred_2lev.retstack_pushes           xxxxxxxxxxxxx |xxxxxxxxxxxxx |xxxxxxxxxxxxx |           82 |           82 |           82 |           82 |xxxxxxxxxxxxx |xxxxxxxxxxxxx |xxxxxxxxxxxxx |           90 |           90 |           90 |           90 |xxxxxxxxxxxxx |xxxxxxxxxxxxx |xxxxxxxxxxxxx |          106 |          106 |          106 |          106 |xxxxxxxxxxxxx |xxxxxxxxxxxxx |xxxxxxxxxxxxx |          138 |          138 |          138 |          138 |xxxxxxxxxxxxx |xxxxxxxxxxxxx |xxxxxxxxxxxxx |          202 |          202 |          202 |          202 |xxxxxxxxxxxxx |xxxxxxxxxxxxx |xxxxxxxxxxxxx |          330 |          330 |          330 |          330 |xxxxxxxxxxxxx |xxxxxxxxxxxxx |xxxxxxxxxxxxx |          586 |          586 |          586 |          586 |xxxxxxxxxxxxx |xxxxxxxxxxxxx |xxxxxxxxxxxxx |       525415 |       525415 |       525415 |       525415 |xxxxxxxxxxxxx |xxxxxxxxxxxxx |xxxxxxxxxxxxx |      1050729 |      1050729 |      1050729 |      1050729 |xxxxxxxxxxxxx |xxxxxxxxxxxxx |xxxxxxxxxxxxx |      2101357 |      2101357 |      2101357 |      2101357 |xxxxxxxxxxxxx |xxxxxxxxxxxxx |xxxxxxxxxxxxx |      4202613 |      4202613 |      4202613 |      4202613 |
bpred_2lev.retstack_pops             xxxxxxxxxxxxx |xxxxxxxxxxxxx |xxxxxxxxxxxxx |           80 |           80 |           80 |           80 |xxxxxxxxxxxxx |xxxxxxxxxxxxx |xxxxxxxxxxxxx |           88 |           88 |           88 |           88 |xxxxxxxxxxxxx |xxxxxxxxxxxxx |xxxxxxxxxxxxx |          104 |          104 |          104 |          104 |xxxxxxxxxxxxx |xxxxxxxxxxxxx |xxxxxxxxxxxxx |          136 |          136 |          136 |          136 |xxxxxxxxxxxxx |xxxxxxxxxxxxx |xxxxxxxxxxxxx |          200 |          200 |          200 |          200 |xxxxxxxxxxxxx |xxxxxxxxxxxxx |xxxxxxxxxxxxx |          328 |          328 |          328 |          328 |xxxxxxxxxxxxx |xxxxxxxxxxxxx |xxxxxxxxxxxxx |          584 |          584 |          584 |          584 |xxxxxxxxxxxxx |xxxxxxxxxxxxx |xxxxxxxxxxxxx |       525413 |       525413 |       525413 |       525413 |xxxxxxxxxxxxx |xxxxxxxxxxxxx |xxxxxxxxxxxxx |      1050727 |      1050727 |      1050727 |      1050727 |xxxxxxxxxxxxx |xxxxxxxxxxxxx |xxxxxxxxxxxxx |      2101355 |      2101355 |      2101355 |      2101355 |xxxxxxxxxxxxx |xxxxxxxxxxxxx |xxxxxxxxxxxxx |      4202611 |      4202611 |      4202611 |      4202611 |
bpred_2lev.used_ras.PP               xxxxxxxxxxxxx |xxxxxxxxxxxxx |xxxxxxxxxxxxx |           80 |           80 |           80 |           80 |xxxxxxxxxxxxx |xxxxxxxxxxxxx |xxxxxxxxxxxxx |           88 |           88 |           88 |           88 |xxxxxxxxxxxxx |xxxxxxxxxxxxx |xxxxxxxxxxxxx |          104 |          104 |          104 |          104 |xxxxxxxxxxxxx |xxxxxxxxxxxxx |xxxxxxxxxxxxx |          136 |          136 |          136 |          136 |xxxxxxxxxxxxx |xxxxxxxxxxxxx |xxxxxxxxxxxxx |          200 |          200 |          200 |          200 |xxxxxxxxxxxxx |xxxxxxxxxxxxx |xxxxxxxxxxxxx |          328 |          328 |          328 |          328 |xxxxxxxxxxxxx |xxxxxxxxxxxxx |xxxxxxxxxxxxx |          584 |          584 |          584 |          584 |xxxxxxxxxxxxx |xxxxxxxxxxxxx |xxxxxxxxxxxxx |       525413 |       525413 |       525413 |       525413 |xxxxxxxxxxxxx |xxxxxxxxxxxxx |xxxxxxxxxxxxx |      1050727 |      1050727 |      1050727 |      1050727 |xxxxxxxxxxxxx |xxxxxxxxxxxxx |xxxxxxxxxxxxx |      2101355 |      2101355 |      2101355 |      2101355 |xxxxxxxxxxxxx |xxxxxxxxxxxxx |xxxxxxxxxxxxx |      4202611 |      4202611 |      4202611 |      4202611 |
bpred_2lev.ras_hits.PP               xxxxxxxxxxxxx |xxxxxxxxxxxxx |xxxxxxxxxxxxx |           79 |           79 |           79 |           79 |xxxxxxxxxxxxx |xxxxxxxxxxxxx |xxxxxxxxxxxxx |           87 |           87 |           87 |           87 |xxxxxxxxxxxxx |xxxxxxxxxxxxx |xxxxxxxxxxxxx |          103 |          103 |          103 |          103 |xxxxxxxxxxxxx |xxxxxxxxxxxxx |xxxxxxxxxxxxx |          135 |          135 |          135 |          135 |xxxxxxxxxxxxx |xxxxxxxxxxxxx |xxxxxxxxxxxxx |          199 |          199 |          199 |          199 |xxxxxxxxxxxxx |xxxxxxxxxxxxx |xxxxxxxxxxxxx |          327 |          327 |          327 |          327 |xxxxxxxxxxxxx |xxxxxxxxxxxxx |xxxxxxxxxxxxx |          583 |          583 |          583 |          583 |xxxxxxxxxxxxx |xxxxxxxxxxxxx |xxxxxxxxxxxxx |       525413 |       525413 |       525413 |       525413 |xxxxxxxxxxxxx |xxxxxxxxxxxxx |xxxxxxxxxxxxx |      1050727 |      1050727 |      1050727 |      1050727 |xxxxxxxxxxxxx |xxxxxxxxxxxxx |xxxxxxxxxxxxx |      2101355 |      2101355 |      2101355 |      2101355 |xxxxxxxxxxxxx |xxxxxxxxxxxxx |xxxxxxxxxxxxx |      4202611 |      4202611 |      4202611 |      4202611 |
bpred_2lev.ras_rate.PP               xxxxxxxxxxxxx |xxxxxxxxxxxxx |xxxxxxxxxxxxx |       0.9875 |       0.9875 |       0.9875 |       0.9875 |xxxxxxxxxxxxx |xxxxxxxxxxxxx |xxxxxxxxxxxxx |       0.9886 |       0.9886 |       0.9886 |       0.9886 |xxxxxxxxxxxxx |xxxxxxxxxxxxx |xxxxxxxxxxxxx |       0.9904 |       0.9904 |       0.9904 |       0.9904 |xxxxxxxxxxxxx |xxxxxxxxxxxxx |xxxxxxxxxxxxx |       0.9926 |       0.9926 |       0.9926 |       0.9926 |xxxxxxxxxxxxx |xxxxxxxxxxxxx |xxxxxxxxxxxxx |       0.9950 |       0.9950 |       0.9950 |       0.9950 |xxxxxxxxxxxxx |xxxxxxxxxxxxx |xxxxxxxxxxxxx |       0.9970 |       0.9970 |       0.9970 |       0.9970 |xxxxxxxxxxxxx |xxxxxxxxxxxxx |xxxxxxxxxxxxx |       0.9983 |       0.9983 |       0.9983 |       0.9983 |xxxxxxxxxxxxx |xxxxxxxxxxxxx |xxxxxxxxxxxxx |       1.0000 |       1.0000 |       1.0000 |       1.0000 |xxxxxxxxxxxxx |xxxxxxxxxxxxx |xxxxxxxxxxxxx |       1.0000 |       1.0000 |       1.0000 |       1.0000 |xxxxxxxxxxxxx |xxxxxxxxxxxxx |xxxxxxxxxxxxx |       1.0000 |       1.0000 |       1.0000 |       1.0000 |xxxxxxxxxxxxx |xxxxxxxxxxxxx |xxxxxxxxxxxxx |       1.0000 |       1.0000 |       1.0000 |       1.0000 |

Command list: 
	sslittle-na-sstrix-gcc -Wall -O3 -funroll-loops -finline-functions  -DRANDOM_SIZE=4096 -DOFFSET=9 -DSORT=multi_mergesort sorts/multi_mergesort517879588.c simpleMain.c -o multi_mergesort882225013
	sim-cache -cache:dl1 dl1:256:32:1:l -cache:dl2 dl2:131072:32:1:l -cache:il1 il1:256:32:1:l -cache:il2 dl2 multi_mergesort882225013
	sim-cache -cache:dl1 dl1:256:32:1:l -cache:dl2 dl2:65536:32:1:l -cache:il1 il1:256:32:1:l -cache:il2 dl2 multi_mergesort882225013
	sim-cache -cache:dl1 dl1:1:32:256:l -cache:dl2 dl2:1:32:131072:l -cache:il1 il1:1:32:256:l -cache:il2 dl2 multi_mergesort882225013
	sim-cache -cache:dl1 dl1:1:32:256:l -cache:dl2 dl2:1:32:65536:l -cache:il1 il1:1:32:256:l -cache:il2 dl2 multi_mergesort882225013
	sim-bpred -bpred bimod -bpred:bimod 512 multi_mergesort882225013
	sim-bpred -bpred bimod -bpred:bimod 1024 multi_mergesort882225013
	sim-bpred -bpred bimod -bpred:bimod 2048 multi_mergesort882225013
	sim-bpred -bpred 2lev -bpred:2lev 1 512 10 1 multi_mergesort882225013
	sim-bpred -bpred 2lev -bpred:2lev 1 1024 10 1 multi_mergesort882225013
	sim-bpred -bpred 2lev -bpred:2lev 1 2048 10 1 multi_mergesort882225013
	sim-bpred -bpred 2lev -bpred:2lev 1 4096 10 1 multi_mergesort882225013
	sslittle-na-sstrix-gcc -Wall -O3 -funroll-loops -finline-functions  -DRANDOM_SIZE=8192 -DOFFSET=9 -DSORT=multi_mergesort sorts/multi_mergesort517879588.c simpleMain.c -o multi_mergesort882225013
	sim-cache -cache:dl1 dl1:256:32:1:l -cache:dl2 dl2:131072:32:1:l -cache:il1 il1:256:32:1:l -cache:il2 dl2 multi_mergesort882225013
	sim-cache -cache:dl1 dl1:256:32:1:l -cache:dl2 dl2:65536:32:1:l -cache:il1 il1:256:32:1:l -cache:il2 dl2 multi_mergesort882225013
	sim-cache -cache:dl1 dl1:1:32:256:l -cache:dl2 dl2:1:32:131072:l -cache:il1 il1:1:32:256:l -cache:il2 dl2 multi_mergesort882225013
	sim-cache -cache:dl1 dl1:1:32:256:l -cache:dl2 dl2:1:32:65536:l -cache:il1 il1:1:32:256:l -cache:il2 dl2 multi_mergesort882225013
	sim-bpred -bpred bimod -bpred:bimod 512 multi_mergesort882225013
	sim-bpred -bpred bimod -bpred:bimod 1024 multi_mergesort882225013
	sim-bpred -bpred bimod -bpred:bimod 2048 multi_mergesort882225013
	sim-bpred -bpred 2lev -bpred:2lev 1 512 10 1 multi_mergesort882225013
	sim-bpred -bpred 2lev -bpred:2lev 1 1024 10 1 multi_mergesort882225013
	sim-bpred -bpred 2lev -bpred:2lev 1 2048 10 1 multi_mergesort882225013
	sim-bpred -bpred 2lev -bpred:2lev 1 4096 10 1 multi_mergesort882225013
	sslittle-na-sstrix-gcc -Wall -O3 -funroll-loops -finline-functions  -DRANDOM_SIZE=16384 -DOFFSET=9 -DSORT=multi_mergesort sorts/multi_mergesort517879588.c simpleMain.c -o multi_mergesort882225013
	sim-cache -cache:dl1 dl1:256:32:1:l -cache:dl2 dl2:131072:32:1:l -cache:il1 il1:256:32:1:l -cache:il2 dl2 multi_mergesort882225013
	sim-cache -cache:dl1 dl1:256:32:1:l -cache:dl2 dl2:65536:32:1:l -cache:il1 il1:256:32:1:l -cache:il2 dl2 multi_mergesort882225013
	sim-cache -cache:dl1 dl1:1:32:256:l -cache:dl2 dl2:1:32:131072:l -cache:il1 il1:1:32:256:l -cache:il2 dl2 multi_mergesort882225013
	sim-cache -cache:dl1 dl1:1:32:256:l -cache:dl2 dl2:1:32:65536:l -cache:il1 il1:1:32:256:l -cache:il2 dl2 multi_mergesort882225013
	sim-bpred -bpred bimod -bpred:bimod 512 multi_mergesort882225013
	sim-bpred -bpred bimod -bpred:bimod 1024 multi_mergesort882225013
	sim-bpred -bpred bimod -bpred:bimod 2048 multi_mergesort882225013
	sim-bpred -bpred 2lev -bpred:2lev 1 512 10 1 multi_mergesort882225013
	sim-bpred -bpred 2lev -bpred:2lev 1 1024 10 1 multi_mergesort882225013
	sim-bpred -bpred 2lev -bpred:2lev 1 2048 10 1 multi_mergesort882225013
	sim-bpred -bpred 2lev -bpred:2lev 1 4096 10 1 multi_mergesort882225013
	sslittle-na-sstrix-gcc -Wall -O3 -funroll-loops -finline-functions  -DRANDOM_SIZE=32768 -DOFFSET=9 -DSORT=multi_mergesort sorts/multi_mergesort517879588.c simpleMain.c -o multi_mergesort882225013
	sim-cache -cache:dl1 dl1:256:32:1:l -cache:dl2 dl2:131072:32:1:l -cache:il1 il1:256:32:1:l -cache:il2 dl2 multi_mergesort882225013
	sim-cache -cache:dl1 dl1:256:32:1:l -cache:dl2 dl2:65536:32:1:l -cache:il1 il1:256:32:1:l -cache:il2 dl2 multi_mergesort882225013
	sim-cache -cache:dl1 dl1:1:32:256:l -cache:dl2 dl2:1:32:131072:l -cache:il1 il1:1:32:256:l -cache:il2 dl2 multi_mergesort882225013
	sim-cache -cache:dl1 dl1:1:32:256:l -cache:dl2 dl2:1:32:65536:l -cache:il1 il1:1:32:256:l -cache:il2 dl2 multi_mergesort882225013
	sim-bpred -bpred bimod -bpred:bimod 512 multi_mergesort882225013
	sim-bpred -bpred bimod -bpred:bimod 1024 multi_mergesort882225013
	sim-bpred -bpred bimod -bpred:bimod 2048 multi_mergesort882225013
	sim-bpred -bpred 2lev -bpred:2lev 1 512 10 1 multi_mergesort882225013
	sim-bpred -bpred 2lev -bpred:2lev 1 1024 10 1 multi_mergesort882225013
	sim-bpred -bpred 2lev -bpred:2lev 1 2048 10 1 multi_mergesort882225013
	sim-bpred -bpred 2lev -bpred:2lev 1 4096 10 1 multi_mergesort882225013
	sslittle-na-sstrix-gcc -Wall -O3 -funroll-loops -finline-functions  -DRANDOM_SIZE=65536 -DOFFSET=9 -DSORT=multi_mergesort sorts/multi_mergesort517879588.c simpleMain.c -o multi_mergesort882225013
	sim-cache -cache:dl1 dl1:256:32:1:l -cache:dl2 dl2:131072:32:1:l -cache:il1 il1:256:32:1:l -cache:il2 dl2 multi_mergesort882225013
	sim-cache -cache:dl1 dl1:256:32:1:l -cache:dl2 dl2:65536:32:1:l -cache:il1 il1:256:32:1:l -cache:il2 dl2 multi_mergesort882225013
	sim-cache -cache:dl1 dl1:1:32:256:l -cache:dl2 dl2:1:32:131072:l -cache:il1 il1:1:32:256:l -cache:il2 dl2 multi_mergesort882225013
	sim-cache -cache:dl1 dl1:1:32:256:l -cache:dl2 dl2:1:32:65536:l -cache:il1 il1:1:32:256:l -cache:il2 dl2 multi_mergesort882225013
	sim-bpred -bpred bimod -bpred:bimod 512 multi_mergesort882225013
	sim-bpred -bpred bimod -bpred:bimod 1024 multi_mergesort882225013
	sim-bpred -bpred bimod -bpred:bimod 2048 multi_mergesort882225013
	sim-bpred -bpred 2lev -bpred:2lev 1 512 10 1 multi_mergesort882225013
	sim-bpred -bpred 2lev -bpred:2lev 1 1024 10 1 multi_mergesort882225013
	sim-bpred -bpred 2lev -bpred:2lev 1 2048 10 1 multi_mergesort882225013
	sim-bpred -bpred 2lev -bpred:2lev 1 4096 10 1 multi_mergesort882225013
	sslittle-na-sstrix-gcc -Wall -O3 -funroll-loops -finline-functions  -DRANDOM_SIZE=131072 -DOFFSET=9 -DSORT=multi_mergesort sorts/multi_mergesort517879588.c simpleMain.c -o multi_mergesort882225013
	sim-cache -cache:dl1 dl1:256:32:1:l -cache:dl2 dl2:131072:32:1:l -cache:il1 il1:256:32:1:l -cache:il2 dl2 multi_mergesort882225013
	sim-cache -cache:dl1 dl1:256:32:1:l -cache:dl2 dl2:65536:32:1:l -cache:il1 il1:256:32:1:l -cache:il2 dl2 multi_mergesort882225013
	sim-cache -cache:dl1 dl1:1:32:256:l -cache:dl2 dl2:1:32:131072:l -cache:il1 il1:1:32:256:l -cache:il2 dl2 multi_mergesort882225013
	sim-cache -cache:dl1 dl1:1:32:256:l -cache:dl2 dl2:1:32:65536:l -cache:il1 il1:1:32:256:l -cache:il2 dl2 multi_mergesort882225013
	sim-bpred -bpred bimod -bpred:bimod 512 multi_mergesort882225013
	sim-bpred -bpred bimod -bpred:bimod 1024 multi_mergesort882225013
	sim-bpred -bpred bimod -bpred:bimod 2048 multi_mergesort882225013
	sim-bpred -bpred 2lev -bpred:2lev 1 512 10 1 multi_mergesort882225013
	sim-bpred -bpred 2lev -bpred:2lev 1 1024 10 1 multi_mergesort882225013
	sim-bpred -bpred 2lev -bpred:2lev 1 2048 10 1 multi_mergesort882225013
	sim-bpred -bpred 2lev -bpred:2lev 1 4096 10 1 multi_mergesort882225013
	sslittle-na-sstrix-gcc -Wall -O3 -funroll-loops -finline-functions  -DRANDOM_SIZE=262144 -DOFFSET=9 -DSORT=multi_mergesort sorts/multi_mergesort517879588.c simpleMain.c -o multi_mergesort882225013
	sim-cache -cache:dl1 dl1:256:32:1:l -cache:dl2 dl2:131072:32:1:l -cache:il1 il1:256:32:1:l -cache:il2 dl2 multi_mergesort882225013
	sim-cache -cache:dl1 dl1:256:32:1:l -cache:dl2 dl2:65536:32:1:l -cache:il1 il1:256:32:1:l -cache:il2 dl2 multi_mergesort882225013
	sim-cache -cache:dl1 dl1:1:32:256:l -cache:dl2 dl2:1:32:131072:l -cache:il1 il1:1:32:256:l -cache:il2 dl2 multi_mergesort882225013
	sim-cache -cache:dl1 dl1:1:32:256:l -cache:dl2 dl2:1:32:65536:l -cache:il1 il1:1:32:256:l -cache:il2 dl2 multi_mergesort882225013
	sim-bpred -bpred bimod -bpred:bimod 512 multi_mergesort882225013
	sim-bpred -bpred bimod -bpred:bimod 1024 multi_mergesort882225013
	sim-bpred -bpred bimod -bpred:bimod 2048 multi_mergesort882225013
	sim-bpred -bpred 2lev -bpred:2lev 1 512 10 1 multi_mergesort882225013
	sim-bpred -bpred 2lev -bpred:2lev 1 1024 10 1 multi_mergesort882225013
	sim-bpred -bpred 2lev -bpred:2lev 1 2048 10 1 multi_mergesort882225013
	sim-bpred -bpred 2lev -bpred:2lev 1 4096 10 1 multi_mergesort882225013
	sslittle-na-sstrix-gcc -Wall -O3 -funroll-loops -finline-functions  -DRANDOM_SIZE=524288 -DOFFSET=9 -DSORT=multi_mergesort sorts/multi_mergesort517879588.c simpleMain.c -o multi_mergesort882225013
	sim-cache -cache:dl1 dl1:256:32:1:l -cache:dl2 dl2:131072:32:1:l -cache:il1 il1:256:32:1:l -cache:il2 dl2 multi_mergesort882225013
	sim-cache -cache:dl1 dl1:256:32:1:l -cache:dl2 dl2:65536:32:1:l -cache:il1 il1:256:32:1:l -cache:il2 dl2 multi_mergesort882225013
	sim-cache -cache:dl1 dl1:1:32:256:l -cache:dl2 dl2:1:32:131072:l -cache:il1 il1:1:32:256:l -cache:il2 dl2 multi_mergesort882225013
	sim-cache -cache:dl1 dl1:1:32:256:l -cache:dl2 dl2:1:32:65536:l -cache:il1 il1:1:32:256:l -cache:il2 dl2 multi_mergesort882225013
	sim-bpred -bpred bimod -bpred:bimod 512 multi_mergesort882225013
	sim-bpred -bpred bimod -bpred:bimod 1024 multi_mergesort882225013
	sim-bpred -bpred bimod -bpred:bimod 2048 multi_mergesort882225013
	sim-bpred -bpred 2lev -bpred:2lev 1 512 10 1 multi_mergesort882225013
	sim-bpred -bpred 2lev -bpred:2lev 1 1024 10 1 multi_mergesort882225013
	sim-bpred -bpred 2lev -bpred:2lev 1 2048 10 1 multi_mergesort882225013
	sim-bpred -bpred 2lev -bpred:2lev 1 4096 10 1 multi_mergesort882225013
	sslittle-na-sstrix-gcc -Wall -O3 -funroll-loops -finline-functions  -DRANDOM_SIZE=1048576 -DOFFSET=9 -DSORT=multi_mergesort sorts/multi_mergesort517879588.c simpleMain.c -o multi_mergesort882225013
	sim-cache -cache:dl1 dl1:256:32:1:l -cache:dl2 dl2:131072:32:1:l -cache:il1 il1:256:32:1:l -cache:il2 dl2 multi_mergesort882225013
	sim-cache -cache:dl1 dl1:256:32:1:l -cache:dl2 dl2:65536:32:1:l -cache:il1 il1:256:32:1:l -cache:il2 dl2 multi_mergesort882225013
	sim-cache -cache:dl1 dl1:1:32:256:l -cache:dl2 dl2:1:32:131072:l -cache:il1 il1:1:32:256:l -cache:il2 dl2 multi_mergesort882225013
	sim-cache -cache:dl1 dl1:1:32:256:l -cache:dl2 dl2:1:32:65536:l -cache:il1 il1:1:32:256:l -cache:il2 dl2 multi_mergesort882225013
	sim-bpred -bpred bimod -bpred:bimod 512 multi_mergesort882225013
	sim-bpred -bpred bimod -bpred:bimod 1024 multi_mergesort882225013
	sim-bpred -bpred bimod -bpred:bimod 2048 multi_mergesort882225013
	sim-bpred -bpred 2lev -bpred:2lev 1 512 10 1 multi_mergesort882225013
	sim-bpred -bpred 2lev -bpred:2lev 1 1024 10 1 multi_mergesort882225013
	sim-bpred -bpred 2lev -bpred:2lev 1 2048 10 1 multi_mergesort882225013
	sim-bpred -bpred 2lev -bpred:2lev 1 4096 10 1 multi_mergesort882225013
	sslittle-na-sstrix-gcc -Wall -O3 -funroll-loops -finline-functions  -DRANDOM_SIZE=2097152 -DOFFSET=9 -DSORT=multi_mergesort sorts/multi_mergesort517879588.c simpleMain.c -o multi_mergesort882225013
	sim-cache -cache:dl1 dl1:256:32:1:l -cache:dl2 dl2:131072:32:1:l -cache:il1 il1:256:32:1:l -cache:il2 dl2 multi_mergesort882225013
	sim-cache -cache:dl1 dl1:256:32:1:l -cache:dl2 dl2:65536:32:1:l -cache:il1 il1:256:32:1:l -cache:il2 dl2 multi_mergesort882225013
	sim-cache -cache:dl1 dl1:1:32:256:l -cache:dl2 dl2:1:32:131072:l -cache:il1 il1:1:32:256:l -cache:il2 dl2 multi_mergesort882225013
	sim-cache -cache:dl1 dl1:1:32:256:l -cache:dl2 dl2:1:32:65536:l -cache:il1 il1:1:32:256:l -cache:il2 dl2 multi_mergesort882225013
	sim-bpred -bpred bimod -bpred:bimod 512 multi_mergesort882225013
	sim-bpred -bpred bimod -bpred:bimod 1024 multi_mergesort882225013
	sim-bpred -bpred bimod -bpred:bimod 2048 multi_mergesort882225013
	sim-bpred -bpred 2lev -bpred:2lev 1 512 10 1 multi_mergesort882225013
	sim-bpred -bpred 2lev -bpred:2lev 1 1024 10 1 multi_mergesort882225013
	sim-bpred -bpred 2lev -bpred:2lev 1 2048 10 1 multi_mergesort882225013
	sim-bpred -bpred 2lev -bpred:2lev 1 4096 10 1 multi_mergesort882225013
	sslittle-na-sstrix-gcc -Wall -O3 -funroll-loops -finline-functions  -DRANDOM_SIZE=4194304 -DOFFSET=9 -DSORT=multi_mergesort sorts/multi_mergesort517879588.c simpleMain.c -o multi_mergesort882225013
	sim-cache -cache:dl1 dl1:256:32:1:l -cache:dl2 dl2:131072:32:1:l -cache:il1 il1:256:32:1:l -cache:il2 dl2 multi_mergesort882225013
	sim-cache -cache:dl1 dl1:256:32:1:l -cache:dl2 dl2:65536:32:1:l -cache:il1 il1:256:32:1:l -cache:il2 dl2 multi_mergesort882225013
	sim-cache -cache:dl1 dl1:1:32:256:l -cache:dl2 dl2:1:32:131072:l -cache:il1 il1:1:32:256:l -cache:il2 dl2 multi_mergesort882225013
	sim-cache -cache:dl1 dl1:1:32:256:l -cache:dl2 dl2:1:32:65536:l -cache:il1 il1:1:32:256:l -cache:il2 dl2 multi_mergesort882225013
	sim-bpred -bpred bimod -bpred:bimod 512 multi_mergesort882225013
	sim-bpred -bpred bimod -bpred:bimod 1024 multi_mergesort882225013
	sim-bpred -bpred bimod -bpred:bimod 2048 multi_mergesort882225013
	sim-bpred -bpred 2lev -bpred:2lev 1 512 10 1 multi_mergesort882225013
	sim-bpred -bpred 2lev -bpred:2lev 1 1024 10 1 multi_mergesort882225013
	sim-bpred -bpred 2lev -bpred:2lev 1 2048 10 1 multi_mergesort882225013
	sim-bpred -bpred 2lev -bpred:2lev 1 4096 10 1 multi_mergesort882225013
