Tue Jun 28 20:11:24 2005
Run as: "./do_simple -c random.org2 -o 2 multi_quicksort_seq"
-------------------------------------------------------------------------------------------------
sim-cache                                     4096 |         4096 |         4096 |         4096 |         8192 |         8192 |         8192 |         8192 |        16384 |        16384 |        16384 |        16384 |        32768 |        32768 |        32768 |        32768 |        65536 |        65536 |        65536 |        65536 |       131072 |       131072 |       131072 |       131072 |       262144 |       262144 |       262144 |       262144 |       524288 |       524288 |       524288 |       524288 |      1048576 |      1048576 |      1048576 |      1048576 |      2097152 |      2097152 |      2097152 |      2097152 |      4194304 |      4194304 |      4194304 |      4194304 |
-cache:dl1 dl1:256:32:1:l -cache:dl2 dl2:131072:32:1:l -cache:il1 il1:256:32:1:l -cache:il2 dl2
-cache:dl1 dl1:256:32:1:l -cache:dl2 dl2:65536:32:1:l -cache:il1 il1:256:32:1:l -cache:il2 dl2
-cache:dl1 dl1:1:32:256:l -cache:dl2 dl2:1:32:131072:l -cache:il1 il1:1:32:256:l -cache:il2 dl2
-cache:dl1 dl1:1:32:256:l -cache:dl2 dl2:1:32:65536:l -cache:il1 il1:1:32:256:l -cache:il2 dl2
-------------------------------------------------------------------------------------------------
sim_num_insn                                471120 |       471120 |       471120 |       471120 |      1007806 |      1007806 |      1007806 |      1007806 |      2180479 |      2180479 |      2180479 |      2180479 |      4634910 |      4634910 |      4634910 |      4634910 |      9922524 |      9922524 |      9922524 |      9922524 |     20812804 |     20812804 |     20812804 |     20812804 |     44338371 |     44338371 |     44338371 |     44338371 |     92368212 |     92368212 |     92368212 |     92368212 |    193281450 |    193281450 |    193281450 |    193281450 |    567110692 |    567110692 |    567110692 |    567110692 |   1311997847 |   1311997847 |   1311997847 |   1311997847 |
sim_num_refs                                123979 |       123979 |       123979 |       123979 |       260350 |       260350 |       260350 |       260350 |       555113 |       555113 |       555113 |       555113 |      1173702 |      1173702 |      1173702 |      1173702 |      2491339 |      2491339 |      2491339 |      2491339 |      5226038 |      5226038 |      5226038 |      5226038 |     11057426 |     11057426 |     11057426 |     11057426 |     23035460 |     23035460 |     23035460 |     23035460 |     48162636 |     48162636 |     48162636 |     48162636 |    133061308 |    133061308 |    133061308 |    133061308 |    291513177 |    291513177 |    291513177 |    291513177 |
sim_elapsed_time                                 1 |            1 |            7 |            4 |            1 |            1 |           10 |            4 |            1 |            1 |           15 |            7 |            2 |            1 |           25 |           13 |            2 |            3 |           45 |           24 |            5 |            6 |           84 |           42 |           12 |           11 |          155 |           73 |           24 |           23 |          267 |          104 |           48 |           49 |          371 |          131 |          144 |          144 |          471 |          231 |          327 |          326 |          667 |          426 |
sim_inst_rate                          471120.0000 |  471120.0000 |   67302.8571 |  117780.0000 | 1007806.0000 | 1007806.0000 |  100780.6000 |  251951.5000 | 2180479.0000 | 2180479.0000 |  145365.2667 |  311497.0000 | 2317455.0000 | 4634910.0000 |  185396.4000 |  356531.5385 | 4961262.0000 | 3307508.0000 |  220500.5333 |  413438.5000 | 4162560.8000 | 3468800.6667 |  247771.4762 |  495542.9524 | 3694864.2500 | 4030761.0000 |  286054.0065 |  607374.9452 | 3848675.5000 | 4016009.2174 |  345948.3596 |  888155.8846 | 4026696.8750 | 3944519.3878 |  520974.2588 | 1475430.9160 | 3938268.6944 | 3938268.6944 | 1204056.6709 | 2455024.6407 | 4012225.8318 | 4024533.2730 | 1967013.2639 | 3079807.1526 |
il1.accesses                                471120 |       471120 |       471120 |       471120 |      1007806 |      1007806 |      1007806 |      1007806 |      2180479 |      2180479 |      2180479 |      2180479 |      4634910 |      4634910 |      4634910 |      4634910 |      9922524 |      9922524 |      9922524 |      9922524 |     20812804 |     20812804 |     20812804 |     20812804 |     44338371 |     44338371 |     44338371 |     44338371 |     92368212 |     92368212 |     92368212 |     92368212 |    193281450 |    193281450 |    193281450 |    193281450 |    567110692 |    567110692 |    567110692 |    567110692 |   1311997847 |   1311997847 |   1311997847 |   1311997847 |
il1.hits                                    470656 |       470656 |       470687 |       470687 |      1007352 |      1007352 |      1007383 |      1007383 |      2180003 |      2180003 |      2180042 |      2180042 |      4634447 |      4634447 |      4634476 |      4634476 |      9922063 |      9922063 |      9922092 |      9922092 |     20812340 |     20812340 |     20812369 |     20812369 |     44337909 |     44337909 |     44337938 |     44337938 |     92367750 |     92367750 |     92367779 |     92367779 |    193280990 |    193280990 |    193281019 |    193281019 |    567109953 |    567109953 |    567109998 |    567109998 |   1311997112 |   1311997112 |   1311997157 |   1311997157 |
il1.misses                                     464 |          464 |          433 |          433 |          454 |          454 |          423 |          423 |          476 |          476 |          437 |          437 |          463 |          463 |          434 |          434 |          461 |          461 |          432 |          432 |          464 |          464 |          435 |          435 |          462 |          462 |          433 |          433 |          462 |          462 |          433 |          433 |          460 |          460 |          431 |          431 |          739 |          739 |          694 |          694 |          735 |          735 |          690 |          690 |
il1.replacements                               221 |          221 |          177 |          177 |          212 |          212 |          167 |          167 |          234 |          234 |          181 |          181 |          218 |          218 |          178 |          178 |          216 |          216 |          176 |          176 |          219 |          219 |          179 |          179 |          217 |          217 |          177 |          177 |          217 |          217 |          177 |          177 |          215 |          215 |          175 |          175 |          484 |          484 |          438 |          438 |          480 |          480 |          434 |          434 |
il1.writebacks                                   0 |            0 |            0 |            0 |            0 |            0 |            0 |            0 |            0 |            0 |            0 |            0 |            0 |            0 |            0 |            0 |            0 |            0 |            0 |            0 |            0 |            0 |            0 |            0 |            0 |            0 |            0 |            0 |            0 |            0 |            0 |            0 |            0 |            0 |            0 |            0 |            0 |            0 |            0 |            0 |            0 |            0 |            0 |            0 |
il1.invalidations                                0 |            0 |            0 |            0 |            0 |            0 |            0 |            0 |            0 |            0 |            0 |            0 |            0 |            0 |            0 |            0 |            0 |            0 |            0 |            0 |            0 |            0 |            0 |            0 |            0 |            0 |            0 |            0 |            0 |            0 |            0 |            0 |            0 |            0 |            0 |            0 |            0 |            0 |            0 |            0 |            0 |            0 |            0 |            0 |
il1.miss_rate                               0.0010 |       0.0010 |       0.0009 |       0.0009 |       0.0005 |       0.0005 |       0.0004 |       0.0004 |       0.0002 |       0.0002 |       0.0002 |       0.0002 |       0.0001 |       0.0001 |       0.0001 |       0.0001 |       0.0000 |       0.0000 |       0.0000 |       0.0000 |       0.0000 |       0.0000 |       0.0000 |       0.0000 |       0.0000 |       0.0000 |       0.0000 |       0.0000 |       0.0000 |       0.0000 |       0.0000 |       0.0000 |       0.0000 |       0.0000 |       0.0000 |       0.0000 |       0.0000 |       0.0000 |       0.0000 |       0.0000 |       0.0000 |       0.0000 |       0.0000 |       0.0000 |
il1.repl_rate                               0.0005 |       0.0005 |       0.0004 |       0.0004 |       0.0002 |       0.0002 |       0.0002 |       0.0002 |       0.0001 |       0.0001 |       0.0001 |       0.0001 |       0.0000 |       0.0000 |       0.0000 |       0.0000 |       0.0000 |       0.0000 |       0.0000 |       0.0000 |       0.0000 |       0.0000 |       0.0000 |       0.0000 |       0.0000 |       0.0000 |       0.0000 |       0.0000 |       0.0000 |       0.0000 |       0.0000 |       0.0000 |       0.0000 |       0.0000 |       0.0000 |       0.0000 |       0.0000 |       0.0000 |       0.0000 |       0.0000 |       0.0000 |       0.0000 |       0.0000 |       0.0000 |
il1.wb_rate                                 0.0000 |       0.0000 |       0.0000 |       0.0000 |       0.0000 |       0.0000 |       0.0000 |       0.0000 |       0.0000 |       0.0000 |       0.0000 |       0.0000 |       0.0000 |       0.0000 |       0.0000 |       0.0000 |       0.0000 |       0.0000 |       0.0000 |       0.0000 |       0.0000 |       0.0000 |       0.0000 |       0.0000 |       0.0000 |       0.0000 |       0.0000 |       0.0000 |       0.0000 |       0.0000 |       0.0000 |       0.0000 |       0.0000 |       0.0000 |       0.0000 |       0.0000 |       0.0000 |       0.0000 |       0.0000 |       0.0000 |       0.0000 |       0.0000 |       0.0000 |       0.0000 |
il1.inv_rate                                0.0000 |       0.0000 |       0.0000 |       0.0000 |       0.0000 |       0.0000 |       0.0000 |       0.0000 |       0.0000 |       0.0000 |       0.0000 |       0.0000 |       0.0000 |       0.0000 |       0.0000 |       0.0000 |       0.0000 |       0.0000 |       0.0000 |       0.0000 |       0.0000 |       0.0000 |       0.0000 |       0.0000 |       0.0000 |       0.0000 |       0.0000 |       0.0000 |       0.0000 |       0.0000 |       0.0000 |       0.0000 |       0.0000 |       0.0000 |       0.0000 |       0.0000 |       0.0000 |       0.0000 |       0.0000 |       0.0000 |       0.0000 |       0.0000 |       0.0000 |       0.0000 |
dl1.accesses                                140445 |       140445 |       140445 |       140445 |       293200 |       293200 |       293200 |       293200 |       620731 |       620731 |       620731 |       620731 |      1304856 |      1304856 |      1304856 |      1304856 |      2753565 |      2753565 |      2753565 |      2753565 |      5750408 |      5750408 |      5750408 |      5750408 |     12106084 |     12106084 |     12106084 |     12106084 |     25132694 |     25132694 |     25132694 |     25132694 |     52357022 |     52357022 |     52357022 |     52357022 |    141449999 |    141449999 |    141449999 |    141449999 |    308290476 |    308290476 |    308290476 |    308290476 |
dl1.hits                                    138325 |       138325 |       138327 |       138327 |       287695 |       287695 |       287712 |       287712 |       607632 |       607632 |       607498 |       607498 |      1275047 |      1275047 |      1275209 |      1275209 |      2683250 |      2683250 |      2683417 |      2683417 |      5596202 |      5596202 |      5596877 |      5596877 |     11753483 |     11753483 |     11756304 |     11756304 |     24372333 |     24372333 |     24379909 |     24379909 |     50700533 |     50700533 |     50719599 |     50719599 |    133227289 |    133227289 |    137766851 |    137766851 |    295302304 |    295302304 |    300918390 |    300918390 |
dl1.misses                                    2120 |         2120 |         2118 |         2118 |         5505 |         5505 |         5488 |         5488 |        13099 |        13099 |        13233 |        13233 |        29809 |        29809 |        29647 |        29647 |        70315 |        70315 |        70148 |        70148 |       154206 |       154206 |       153531 |       153531 |       352601 |       352601 |       349780 |       349780 |       760361 |       760361 |       752785 |       752785 |      1656489 |      1656489 |      1637423 |      1637423 |      8222710 |      8222710 |      3683148 |      3683148 |     12988172 |     12988172 |      7372086 |      7372086 |
dl1.replacements                              1864 |         1864 |         1862 |         1862 |         5249 |         5249 |         5232 |         5232 |        12843 |        12843 |        12977 |        12977 |        29553 |        29553 |        29391 |        29391 |        70059 |        70059 |        69892 |        69892 |       153950 |       153950 |       153275 |       153275 |       352345 |       352345 |       349524 |       349524 |       760105 |       760105 |       752529 |       752529 |      1656233 |      1656233 |      1637167 |      1637167 |      8222454 |      8222454 |      3682892 |      3682892 |     12987916 |     12987916 |      7371830 |      7371830 |
dl1.writebacks                                1816 |         1816 |         1828 |         1828 |         4784 |         4784 |         4808 |         4808 |        11583 |        11583 |        11764 |        11764 |        26745 |        26745 |        26790 |        26790 |        62608 |        62608 |        62965 |        62965 |       142140 |       142140 |       142677 |       142677 |       316287 |       316287 |       316778 |       316778 |       703663 |       703663 |       704301 |       704301 |      1545310 |      1545310 |      1544215 |      1544215 |      5301596 |      5301596 |      2952176 |      2952176 |     10246395 |     10246395 |      5985485 |      5985485 |
dl1.invalidations                                0 |            0 |            0 |            0 |            0 |            0 |            0 |            0 |            0 |            0 |            0 |            0 |            0 |            0 |            0 |            0 |            0 |            0 |            0 |            0 |            0 |            0 |            0 |            0 |            0 |            0 |            0 |            0 |            0 |            0 |            0 |            0 |            0 |            0 |            0 |            0 |            0 |            0 |            0 |            0 |            0 |            0 |            0 |            0 |
dl1.miss_rate                               0.0151 |       0.0151 |       0.0151 |       0.0151 |       0.0188 |       0.0188 |       0.0187 |       0.0187 |       0.0211 |       0.0211 |       0.0213 |       0.0213 |       0.0228 |       0.0228 |       0.0227 |       0.0227 |       0.0255 |       0.0255 |       0.0255 |       0.0255 |       0.0268 |       0.0268 |       0.0267 |       0.0267 |       0.0291 |       0.0291 |       0.0289 |       0.0289 |       0.0303 |       0.0303 |       0.0300 |       0.0300 |       0.0316 |       0.0316 |       0.0313 |       0.0313 |       0.0581 |       0.0581 |       0.0260 |       0.0260 |       0.0421 |       0.0421 |       0.0239 |       0.0239 |
dl1.repl_rate                               0.0133 |       0.0133 |       0.0133 |       0.0133 |       0.0179 |       0.0179 |       0.0178 |       0.0178 |       0.0207 |       0.0207 |       0.0209 |       0.0209 |       0.0226 |       0.0226 |       0.0225 |       0.0225 |       0.0254 |       0.0254 |       0.0254 |       0.0254 |       0.0268 |       0.0268 |       0.0267 |       0.0267 |       0.0291 |       0.0291 |       0.0289 |       0.0289 |       0.0302 |       0.0302 |       0.0299 |       0.0299 |       0.0316 |       0.0316 |       0.0313 |       0.0313 |       0.0581 |       0.0581 |       0.0260 |       0.0260 |       0.0421 |       0.0421 |       0.0239 |       0.0239 |
dl1.wb_rate                                 0.0129 |       0.0129 |       0.0130 |       0.0130 |       0.0163 |       0.0163 |       0.0164 |       0.0164 |       0.0187 |       0.0187 |       0.0190 |       0.0190 |       0.0205 |       0.0205 |       0.0205 |       0.0205 |       0.0227 |       0.0227 |       0.0229 |       0.0229 |       0.0247 |       0.0247 |       0.0248 |       0.0248 |       0.0261 |       0.0261 |       0.0262 |       0.0262 |       0.0280 |       0.0280 |       0.0280 |       0.0280 |       0.0295 |       0.0295 |       0.0295 |       0.0295 |       0.0375 |       0.0375 |       0.0209 |       0.0209 |       0.0332 |       0.0332 |       0.0194 |       0.0194 |
dl1.inv_rate                                0.0000 |       0.0000 |       0.0000 |       0.0000 |       0.0000 |       0.0000 |       0.0000 |       0.0000 |       0.0000 |       0.0000 |       0.0000 |       0.0000 |       0.0000 |       0.0000 |       0.0000 |       0.0000 |       0.0000 |       0.0000 |       0.0000 |       0.0000 |       0.0000 |       0.0000 |       0.0000 |       0.0000 |       0.0000 |       0.0000 |       0.0000 |       0.0000 |       0.0000 |       0.0000 |       0.0000 |       0.0000 |       0.0000 |       0.0000 |       0.0000 |       0.0000 |       0.0000 |       0.0000 |       0.0000 |       0.0000 |       0.0000 |       0.0000 |       0.0000 |       0.0000 |
dl2.accesses                                  4400 |         4400 |         4379 |         4379 |        10743 |        10743 |        10719 |        10719 |        25158 |        25158 |        25434 |        25434 |        57017 |        57017 |        56871 |        56871 |       133384 |       133384 |       133545 |       133545 |       296810 |       296810 |       296643 |       296643 |       669350 |       669350 |       666991 |       666991 |      1464486 |      1464486 |      1457519 |      1457519 |      3202259 |      3202259 |      3182069 |      3182069 |     13525045 |     13525045 |      6636018 |      6636018 |     23235302 |     23235302 |     13358261 |     13358261 |
dl2.hits                                      2978 |         2978 |         2993 |         2993 |         8819 |         8819 |         8831 |         8831 |        22208 |        22208 |        22526 |        22526 |        52025 |        52025 |        51916 |        51916 |       124298 |       124298 |       124495 |       124495 |       279527 |       279527 |       279398 |       279398 |       635685 |       635685 |       633364 |       633364 |      1398053 |      1397393 |      1391124 |      1343322 |      3069626 |      2842647 |      2962981 |      2802033 |     12175562 |     12148593 |      5332605 |      5271870 |     20533022 |     20467475 |     10737126 |     10606998 |
dl2.misses                                    1422 |         1422 |         1386 |         1386 |         1924 |         1924 |         1888 |         1888 |         2950 |         2950 |         2908 |         2908 |         4992 |         4992 |         4955 |         4955 |         9086 |         9086 |         9050 |         9050 |        17283 |        17283 |        17245 |        17245 |        33665 |        33665 |        33627 |        33627 |        66433 |        67093 |        66395 |       114197 |       132633 |       359612 |       219088 |       380036 |      1349483 |      1376452 |      1303413 |      1364148 |      2702280 |      2767827 |      2621135 |      2751263 |
dl2.replacements                               282 |          282 |            0 |            0 |          279 |          279 |            0 |            0 |          288 |          288 |            0 |            0 |          284 |          284 |            0 |            0 |          288 |          288 |            0 |            0 |          286 |          286 |            0 |            0 |          284 |          284 |            0 |            0 |          284 |         1557 |            0 |        48661 |         1561 |       294076 |        88016 |       314500 |      1218411 |      1310916 |      1172341 |      1298612 |      2571208 |      2702291 |      2490063 |      2685727 |
dl2.writebacks                                 154 |          154 |            0 |            0 |          152 |          152 |            0 |            0 |          154 |          154 |            0 |            0 |          152 |          152 |            0 |            0 |          151 |          151 |            0 |            0 |          152 |          152 |            0 |            0 |          152 |          152 |            0 |            0 |          152 |         1281 |            0 |        48286 |         1287 |       290694 |        87788 |       311066 |       733044 |       793382 |       724422 |       798900 |      1557729 |      1652666 |      1513455 |      1661265 |
dl2.invalidations                                0 |            0 |            0 |            0 |            0 |            0 |            0 |            0 |            0 |            0 |            0 |            0 |            0 |            0 |            0 |            0 |            0 |            0 |            0 |            0 |            0 |            0 |            0 |            0 |            0 |            0 |            0 |            0 |            0 |            0 |            0 |            0 |            0 |            0 |            0 |            0 |            0 |            0 |            0 |            0 |            0 |            0 |            0 |            0 |
dl2.miss_rate                               0.3232 |       0.3232 |       0.3165 |       0.3165 |       0.1791 |       0.1791 |       0.1761 |       0.1761 |       0.1173 |       0.1173 |       0.1143 |       0.1143 |       0.0876 |       0.0876 |       0.0871 |       0.0871 |       0.0681 |       0.0681 |       0.0678 |       0.0678 |       0.0582 |       0.0582 |       0.0581 |       0.0581 |       0.0503 |       0.0503 |       0.0504 |       0.0504 |       0.0454 |       0.0458 |       0.0456 |       0.0784 |       0.0414 |       0.1123 |       0.0689 |       0.1194 |       0.0998 |       0.1018 |       0.1964 |       0.2056 |       0.1163 |       0.1191 |       0.1962 |       0.2060 |
dl2.repl_rate                               0.0641 |       0.0641 |       0.0000 |       0.0000 |       0.0260 |       0.0260 |       0.0000 |       0.0000 |       0.0114 |       0.0114 |       0.0000 |       0.0000 |       0.0050 |       0.0050 |       0.0000 |       0.0000 |       0.0022 |       0.0022 |       0.0000 |       0.0000 |       0.0010 |       0.0010 |       0.0000 |       0.0000 |       0.0004 |       0.0004 |       0.0000 |       0.0000 |       0.0002 |       0.0011 |       0.0000 |       0.0334 |       0.0005 |       0.0918 |       0.0277 |       0.0988 |       0.0901 |       0.0969 |       0.1767 |       0.1957 |       0.1107 |       0.1163 |       0.1864 |       0.2011 |
dl2.wb_rate                                 0.0350 |       0.0350 |       0.0000 |       0.0000 |       0.0141 |       0.0141 |       0.0000 |       0.0000 |       0.0061 |       0.0061 |       0.0000 |       0.0000 |       0.0027 |       0.0027 |       0.0000 |       0.0000 |       0.0011 |       0.0011 |       0.0000 |       0.0000 |       0.0005 |       0.0005 |       0.0000 |       0.0000 |       0.0002 |       0.0002 |       0.0000 |       0.0000 |       0.0001 |       0.0009 |       0.0000 |       0.0331 |       0.0004 |       0.0908 |       0.0276 |       0.0978 |       0.0542 |       0.0587 |       0.1092 |       0.1204 |       0.0670 |       0.0711 |       0.1133 |       0.1244 |
dl2.inv_rate                                0.0000 |       0.0000 |       0.0000 |       0.0000 |       0.0000 |       0.0000 |       0.0000 |       0.0000 |       0.0000 |       0.0000 |       0.0000 |       0.0000 |       0.0000 |       0.0000 |       0.0000 |       0.0000 |       0.0000 |       0.0000 |       0.0000 |       0.0000 |       0.0000 |       0.0000 |       0.0000 |       0.0000 |       0.0000 |       0.0000 |       0.0000 |       0.0000 |       0.0000 |       0.0000 |       0.0000 |       0.0000 |       0.0000 |       0.0000 |       0.0000 |       0.0000 |       0.0000 |       0.0000 |       0.0000 |       0.0000 |       0.0000 |       0.0000 |       0.0000 |       0.0000 |
itlb.accesses                               471120 |       471120 |       471120 |       471120 |      1007806 |      1007806 |      1007806 |      1007806 |      2180479 |      2180479 |      2180479 |      2180479 |      4634910 |      4634910 |      4634910 |      4634910 |      9922524 |      9922524 |      9922524 |      9922524 |     20812804 |     20812804 |     20812804 |     20812804 |     44338371 |     44338371 |     44338371 |     44338371 |     92368212 |     92368212 |     92368212 |     92368212 |    193281450 |    193281450 |    193281450 |    193281450 |    567110692 |    567110692 |    567110692 |    567110692 |   1311997847 |   1311997847 |   1311997847 |   1311997847 |
itlb.hits                                   471109 |       471109 |       471109 |       471109 |      1007795 |      1007795 |      1007795 |      1007795 |      2180468 |      2180468 |      2180468 |      2180468 |      4634899 |      4634899 |      4634899 |      4634899 |      9922513 |      9922513 |      9922513 |      9922513 |     20812793 |     20812793 |     20812793 |     20812793 |     44338360 |     44338360 |     44338360 |     44338360 |     92368201 |     92368201 |     92368201 |     92368201 |    193281439 |    193281439 |    193281439 |    193281439 |    567110681 |    567110681 |    567110681 |    567110681 |   1311997836 |   1311997836 |   1311997836 |   1311997836 |
itlb.misses                                     11 |           11 |           11 |           11 |           11 |           11 |           11 |           11 |           11 |           11 |           11 |           11 |           11 |           11 |           11 |           11 |           11 |           11 |           11 |           11 |           11 |           11 |           11 |           11 |           11 |           11 |           11 |           11 |           11 |           11 |           11 |           11 |           11 |           11 |           11 |           11 |           11 |           11 |           11 |           11 |           11 |           11 |           11 |           11 |
itlb.replacements                                0 |            0 |            0 |            0 |            0 |            0 |            0 |            0 |            0 |            0 |            0 |            0 |            0 |            0 |            0 |            0 |            0 |            0 |            0 |            0 |            0 |            0 |            0 |            0 |            0 |            0 |            0 |            0 |            0 |            0 |            0 |            0 |            0 |            0 |            0 |            0 |            0 |            0 |            0 |            0 |            0 |            0 |            0 |            0 |
itlb.writebacks                                  0 |            0 |            0 |            0 |            0 |            0 |            0 |            0 |            0 |            0 |            0 |            0 |            0 |            0 |            0 |            0 |            0 |            0 |            0 |            0 |            0 |            0 |            0 |            0 |            0 |            0 |            0 |            0 |            0 |            0 |            0 |            0 |            0 |            0 |            0 |            0 |            0 |            0 |            0 |            0 |            0 |            0 |            0 |            0 |
itlb.invalidations                               0 |            0 |            0 |            0 |            0 |            0 |            0 |            0 |            0 |            0 |            0 |            0 |            0 |            0 |            0 |            0 |            0 |            0 |            0 |            0 |            0 |            0 |            0 |            0 |            0 |            0 |            0 |            0 |            0 |            0 |            0 |            0 |            0 |            0 |            0 |            0 |            0 |            0 |            0 |            0 |            0 |            0 |            0 |            0 |
itlb.miss_rate                              0.0000 |       0.0000 |       0.0000 |       0.0000 |       0.0000 |       0.0000 |       0.0000 |       0.0000 |       0.0000 |       0.0000 |       0.0000 |       0.0000 |       0.0000 |       0.0000 |       0.0000 |       0.0000 |       0.0000 |       0.0000 |       0.0000 |       0.0000 |       0.0000 |       0.0000 |       0.0000 |       0.0000 |       0.0000 |       0.0000 |       0.0000 |       0.0000 |       0.0000 |       0.0000 |       0.0000 |       0.0000 |       0.0000 |       0.0000 |       0.0000 |       0.0000 |       0.0000 |       0.0000 |       0.0000 |       0.0000 |       0.0000 |       0.0000 |       0.0000 |       0.0000 |
itlb.repl_rate                              0.0000 |       0.0000 |       0.0000 |       0.0000 |       0.0000 |       0.0000 |       0.0000 |       0.0000 |       0.0000 |       0.0000 |       0.0000 |       0.0000 |       0.0000 |       0.0000 |       0.0000 |       0.0000 |       0.0000 |       0.0000 |       0.0000 |       0.0000 |       0.0000 |       0.0000 |       0.0000 |       0.0000 |       0.0000 |       0.0000 |       0.0000 |       0.0000 |       0.0000 |       0.0000 |       0.0000 |       0.0000 |       0.0000 |       0.0000 |       0.0000 |       0.0000 |       0.0000 |       0.0000 |       0.0000 |       0.0000 |       0.0000 |       0.0000 |       0.0000 |       0.0000 |
itlb.wb_rate                                0.0000 |       0.0000 |       0.0000 |       0.0000 |       0.0000 |       0.0000 |       0.0000 |       0.0000 |       0.0000 |       0.0000 |       0.0000 |       0.0000 |       0.0000 |       0.0000 |       0.0000 |       0.0000 |       0.0000 |       0.0000 |       0.0000 |       0.0000 |       0.0000 |       0.0000 |       0.0000 |       0.0000 |       0.0000 |       0.0000 |       0.0000 |       0.0000 |       0.0000 |       0.0000 |       0.0000 |       0.0000 |       0.0000 |       0.0000 |       0.0000 |       0.0000 |       0.0000 |       0.0000 |       0.0000 |       0.0000 |       0.0000 |       0.0000 |       0.0000 |       0.0000 |
itlb.inv_rate                               0.0000 |       0.0000 |       0.0000 |       0.0000 |       0.0000 |       0.0000 |       0.0000 |       0.0000 |       0.0000 |       0.0000 |       0.0000 |       0.0000 |       0.0000 |       0.0000 |       0.0000 |       0.0000 |       0.0000 |       0.0000 |       0.0000 |       0.0000 |       0.0000 |       0.0000 |       0.0000 |       0.0000 |       0.0000 |       0.0000 |       0.0000 |       0.0000 |       0.0000 |       0.0000 |       0.0000 |       0.0000 |       0.0000 |       0.0000 |       0.0000 |       0.0000 |       0.0000 |       0.0000 |       0.0000 |       0.0000 |       0.0000 |       0.0000 |       0.0000 |       0.0000 |
dtlb.accesses                               140445 |       140445 |       140445 |       140445 |       293200 |       293200 |       293200 |       293200 |       620731 |       620731 |       620731 |       620731 |      1304856 |      1304856 |      1304856 |      1304856 |      2753565 |      2753565 |      2753565 |      2753565 |      5750408 |      5750408 |      5750408 |      5750408 |     12106084 |     12106084 |     12106084 |     12106084 |     25132694 |     25132694 |     25132694 |     25132694 |     52357022 |     52357022 |     52357022 |     52357022 |    141449999 |    141449999 |    141449999 |    141449999 |    308290476 |    308290476 |    308290476 |    308290476 |
dtlb.hits                                   140433 |       140433 |       140433 |       140433 |       293184 |       293184 |       293184 |       293184 |       620707 |       620707 |       620707 |       620707 |      1304816 |      1304816 |      1304816 |      1304816 |      2753493 |      2753493 |      2753493 |      2753493 |      5750242 |      5750242 |      5750242 |      5750242 |     12105116 |     12105116 |     12105116 |     12105116 |     25130349 |     25130349 |     25130349 |     25130349 |     52351562 |     52351562 |     52351562 |     52351562 |    141435847 |    141435847 |    141435847 |    141435847 |    308261811 |    308261811 |    308261811 |    308261811 |
dtlb.misses                                     12 |           12 |           12 |           12 |           16 |           16 |           16 |           16 |           24 |           24 |           24 |           24 |           40 |           40 |           40 |           40 |           72 |           72 |           72 |           72 |          166 |          166 |          166 |          166 |          968 |          968 |          968 |          968 |         2345 |         2345 |         2345 |         2345 |         5460 |         5460 |         5460 |         5460 |        14152 |        14152 |        14152 |        14152 |        28665 |        28665 |        28665 |        28665 |
dtlb.replacements                                0 |            0 |            0 |            0 |            0 |            0 |            0 |            0 |            0 |            0 |            0 |            0 |            0 |            0 |            0 |            0 |            0 |            0 |            0 |            0 |           38 |           38 |           38 |           38 |          840 |          840 |          840 |          840 |         2217 |         2217 |         2217 |         2217 |         5332 |         5332 |         5332 |         5332 |        14024 |        14024 |        14024 |        14024 |        28537 |        28537 |        28537 |        28537 |
dtlb.writebacks                                  0 |            0 |            0 |            0 |            0 |            0 |            0 |            0 |            0 |            0 |            0 |            0 |            0 |            0 |            0 |            0 |            0 |            0 |            0 |            0 |           36 |           36 |           36 |           36 |          838 |          838 |          838 |          838 |         2215 |         2215 |         2215 |         2215 |         5330 |         5330 |         5330 |         5330 |        11960 |        11960 |        11960 |        11960 |        24412 |        24412 |        24412 |        24412 |
dtlb.invalidations                               0 |            0 |            0 |            0 |            0 |            0 |            0 |            0 |            0 |            0 |            0 |            0 |            0 |            0 |            0 |            0 |            0 |            0 |            0 |            0 |            0 |            0 |            0 |            0 |            0 |            0 |            0 |            0 |            0 |            0 |            0 |            0 |            0 |            0 |            0 |            0 |            0 |            0 |            0 |            0 |            0 |            0 |            0 |            0 |
dtlb.miss_rate                              0.0001 |       0.0001 |       0.0001 |       0.0001 |       0.0001 |       0.0001 |       0.0001 |       0.0001 |       0.0000 |       0.0000 |       0.0000 |       0.0000 |       0.0000 |       0.0000 |       0.0000 |       0.0000 |       0.0000 |       0.0000 |       0.0000 |       0.0000 |       0.0000 |       0.0000 |       0.0000 |       0.0000 |       0.0001 |       0.0001 |       0.0001 |       0.0001 |       0.0001 |       0.0001 |       0.0001 |       0.0001 |       0.0001 |       0.0001 |       0.0001 |       0.0001 |       0.0001 |       0.0001 |       0.0001 |       0.0001 |       0.0001 |       0.0001 |       0.0001 |       0.0001 |
dtlb.repl_rate                              0.0000 |       0.0000 |       0.0000 |       0.0000 |       0.0000 |       0.0000 |       0.0000 |       0.0000 |       0.0000 |       0.0000 |       0.0000 |       0.0000 |       0.0000 |       0.0000 |       0.0000 |       0.0000 |       0.0000 |       0.0000 |       0.0000 |       0.0000 |       0.0000 |       0.0000 |       0.0000 |       0.0000 |       0.0001 |       0.0001 |       0.0001 |       0.0001 |       0.0001 |       0.0001 |       0.0001 |       0.0001 |       0.0001 |       0.0001 |       0.0001 |       0.0001 |       0.0001 |       0.0001 |       0.0001 |       0.0001 |       0.0001 |       0.0001 |       0.0001 |       0.0001 |
dtlb.wb_rate                                0.0000 |       0.0000 |       0.0000 |       0.0000 |       0.0000 |       0.0000 |       0.0000 |       0.0000 |       0.0000 |       0.0000 |       0.0000 |       0.0000 |       0.0000 |       0.0000 |       0.0000 |       0.0000 |       0.0000 |       0.0000 |       0.0000 |       0.0000 |       0.0000 |       0.0000 |       0.0000 |       0.0000 |       0.0001 |       0.0001 |       0.0001 |       0.0001 |       0.0001 |       0.0001 |       0.0001 |       0.0001 |       0.0001 |       0.0001 |       0.0001 |       0.0001 |       0.0001 |       0.0001 |       0.0001 |       0.0001 |       0.0001 |       0.0001 |       0.0001 |       0.0001 |
dtlb.inv_rate                               0.0000 |       0.0000 |       0.0000 |       0.0000 |       0.0000 |       0.0000 |       0.0000 |       0.0000 |       0.0000 |       0.0000 |       0.0000 |       0.0000 |       0.0000 |       0.0000 |       0.0000 |       0.0000 |       0.0000 |       0.0000 |       0.0000 |       0.0000 |       0.0000 |       0.0000 |       0.0000 |       0.0000 |       0.0000 |       0.0000 |       0.0000 |       0.0000 |       0.0000 |       0.0000 |       0.0000 |       0.0000 |       0.0000 |       0.0000 |       0.0000 |       0.0000 |       0.0000 |       0.0000 |       0.0000 |       0.0000 |       0.0000 |       0.0000 |       0.0000 |       0.0000 |
ld_text_base                            0x00400000 |   0x00400000 |   0x00400000 |   0x00400000 |   0x00400000 |   0x00400000 |   0x00400000 |   0x00400000 |   0x00400000 |   0x00400000 |   0x00400000 |   0x00400000 |   0x00400000 |   0x00400000 |   0x00400000 |   0x00400000 |   0x00400000 |   0x00400000 |   0x00400000 |   0x00400000 |   0x00400000 |   0x00400000 |   0x00400000 |   0x00400000 |   0x00400000 |   0x00400000 |   0x00400000 |   0x00400000 |   0x00400000 |   0x00400000 |   0x00400000 |   0x00400000 |   0x00400000 |   0x00400000 |   0x00400000 |   0x00400000 |   0x00400000 |   0x00400000 |   0x00400000 |   0x00400000 |   0x00400000 |   0x00400000 |   0x00400000 |   0x00400000 |
ld_text_size                                 78480 |        78480 |        78480 |        78480 |        78512 |        78512 |        78512 |        78512 |        78528 |        78528 |        78528 |        78528 |        78544 |        78544 |        78544 |        78544 |        78544 |        78544 |        78544 |        78544 |        78544 |        78544 |        78544 |        78544 |        78544 |        78544 |        78544 |        78544 |        78544 |        78544 |        78544 |        78544 |        78544 |        78544 |        78544 |        78544 |        78544 |        78544 |        78544 |        78544 |        78544 |        78544 |        78544 |        78544 |
ld_data_base                            0x10000000 |   0x10000000 |   0x10000000 |   0x10000000 |   0x10000000 |   0x10000000 |   0x10000000 |   0x10000000 |   0x10000000 |   0x10000000 |   0x10000000 |   0x10000000 |   0x10000000 |   0x10000000 |   0x10000000 |   0x10000000 |   0x10000000 |   0x10000000 |   0x10000000 |   0x10000000 |   0x10000000 |   0x10000000 |   0x10000000 |   0x10000000 |   0x10000000 |   0x10000000 |   0x10000000 |   0x10000000 |   0x10000000 |   0x10000000 |   0x10000000 |   0x10000000 |   0x10000000 |   0x10000000 |   0x10000000 |   0x10000000 |   0x10000000 |   0x10000000 |   0x10000000 |   0x10000000 |   0x10000000 |   0x10000000 |   0x10000000 |   0x10000000 |
ld_data_size                                  8192 |         8192 |         8192 |         8192 |         8192 |         8192 |         8192 |         8192 |         8192 |         8192 |         8192 |         8192 |         8192 |         8192 |         8192 |         8192 |         8192 |         8192 |         8192 |         8192 |         8192 |         8192 |         8192 |         8192 |         8192 |         8192 |         8192 |         8192 |         8192 |         8192 |         8192 |         8192 |         8192 |         8192 |         8192 |         8192 |         8192 |         8192 |         8192 |         8192 |         8192 |         8192 |         8192 |         8192 |
ld_stack_base                           0x7fffc000 |   0x7fffc000 |   0x7fffc000 |   0x7fffc000 |   0x7fffc000 |   0x7fffc000 |   0x7fffc000 |   0x7fffc000 |   0x7fffc000 |   0x7fffc000 |   0x7fffc000 |   0x7fffc000 |   0x7fffc000 |   0x7fffc000 |   0x7fffc000 |   0x7fffc000 |   0x7fffc000 |   0x7fffc000 |   0x7fffc000 |   0x7fffc000 |   0x7fffc000 |   0x7fffc000 |   0x7fffc000 |   0x7fffc000 |   0x7fffc000 |   0x7fffc000 |   0x7fffc000 |   0x7fffc000 |   0x7fffc000 |   0x7fffc000 |   0x7fffc000 |   0x7fffc000 |   0x7fffc000 |   0x7fffc000 |   0x7fffc000 |   0x7fffc000 |   0x7fffc000 |   0x7fffc000 |   0x7fffc000 |   0x7fffc000 |   0x7fffc000 |   0x7fffc000 |   0x7fffc000 |   0x7fffc000 |
ld_stack_size                                16384 |        16384 |        16384 |        16384 |        16384 |        16384 |        16384 |        16384 |        16384 |        16384 |        16384 |        16384 |        16384 |        16384 |        16384 |        16384 |        16384 |        16384 |        16384 |        16384 |        16384 |        16384 |        16384 |        16384 |        16384 |        16384 |        16384 |        16384 |        16384 |        16384 |        16384 |        16384 |        16384 |        16384 |        16384 |        16384 |        16384 |        16384 |        16384 |        16384 |        16384 |        16384 |        16384 |        16384 |
ld_prog_entry                           0x00400140 |   0x00400140 |   0x00400140 |   0x00400140 |   0x00400140 |   0x00400140 |   0x00400140 |   0x00400140 |   0x00400140 |   0x00400140 |   0x00400140 |   0x00400140 |   0x00400140 |   0x00400140 |   0x00400140 |   0x00400140 |   0x00400140 |   0x00400140 |   0x00400140 |   0x00400140 |   0x00400140 |   0x00400140 |   0x00400140 |   0x00400140 |   0x00400140 |   0x00400140 |   0x00400140 |   0x00400140 |   0x00400140 |   0x00400140 |   0x00400140 |   0x00400140 |   0x00400140 |   0x00400140 |   0x00400140 |   0x00400140 |   0x00400140 |   0x00400140 |   0x00400140 |   0x00400140 |   0x00400140 |   0x00400140 |   0x00400140 |   0x00400140 |
ld_environ_base                         0x7fff8000 |   0x7fff8000 |   0x7fff8000 |   0x7fff8000 |   0x7fff8000 |   0x7fff8000 |   0x7fff8000 |   0x7fff8000 |   0x7fff8000 |   0x7fff8000 |   0x7fff8000 |   0x7fff8000 |   0x7fff8000 |   0x7fff8000 |   0x7fff8000 |   0x7fff8000 |   0x7fff8000 |   0x7fff8000 |   0x7fff8000 |   0x7fff8000 |   0x7fff8000 |   0x7fff8000 |   0x7fff8000 |   0x7fff8000 |   0x7fff8000 |   0x7fff8000 |   0x7fff8000 |   0x7fff8000 |   0x7fff8000 |   0x7fff8000 |   0x7fff8000 |   0x7fff8000 |   0x7fff8000 |   0x7fff8000 |   0x7fff8000 |   0x7fff8000 |   0x7fff8000 |   0x7fff8000 |   0x7fff8000 |   0x7fff8000 |   0x7fff8000 |   0x7fff8000 |   0x7fff8000 |   0x7fff8000 |
ld_target_big_endian                             0 |            0 |            0 |            0 |            0 |            0 |            0 |            0 |            0 |            0 |            0 |            0 |            0 |            0 |            0 |            0 |            0 |            0 |            0 |            0 |            0 |            0 |            0 |            0 |            0 |            0 |            0 |            0 |            0 |            0 |            0 |            0 |            0 |            0 |            0 |            0 |            0 |            0 |            0 |            0 |            0 |            0 |            0 |            0 |
mem.page_count                                  32 |           32 |           32 |           32 |           36 |           36 |           36 |           36 |           44 |           44 |           44 |           44 |           60 |           60 |           60 |           60 |           92 |           92 |           92 |           92 |          156 |          156 |          156 |          156 |          284 |          284 |          284 |          284 |          540 |          540 |          540 |          540 |         1052 |         1052 |         1052 |         1052 |         4147 |         4147 |         4147 |         4147 |         8265 |         8265 |         8265 |         8265 |
mem.page_mem                                  128k |         128k |         128k |         128k |         144k |         144k |         144k |         144k |         176k |         176k |         176k |         176k |         240k |         240k |         240k |         240k |         368k |         368k |         368k |         368k |         624k |         624k |         624k |         624k |        1136k |        1136k |        1136k |        1136k |        2160k |        2160k |        2160k |        2160k |        4208k |        4208k |        4208k |        4208k |       16588k |       16588k |       16588k |       16588k |       33060k |       33060k |       33060k |       33060k |
mem.ptab_misses                                 32 |           32 |           32 |           32 |           36 |           36 |           36 |           36 |           44 |           44 |           44 |           44 |           60 |           60 |           60 |           60 |           92 |           92 |           92 |           92 |          156 |          156 |          156 |          156 |          284 |          284 |          284 |          284 |          540 |          540 |          540 |          540 |         1052 |         1052 |         1052 |         1052 |        14383 |        14383 |        14383 |        14383 |        26679 |        26679 |        26679 |        26679 |
mem.ptab_accesses                          2650912 |      2650912 |      2650912 |      2650912 |      5103358 |      5103358 |      5103358 |      5103358 |     10449208 |     10449208 |     10449208 |     10449208 |     21635278 |     21635278 |     21635278 |     21635278 |     45683152 |     45683152 |     45683152 |     45683152 |     95237958 |     95237958 |     95237958 |     95237958 |    202051578 |    202051578 |    202051578 |    202051578 |    420224162 |    420224162 |    420224162 |    420224162 |    878325770 |    878325770 |    878325770 |    878325770 |   2551828692 |   2551828692 |   2551828692 |   2551828692 |   5865058266 |   5865058266 |   5865058266 |   5865058266 |
mem.ptab_miss_rate                          0.0000 |       0.0000 |       0.0000 |       0.0000 |       0.0000 |       0.0000 |       0.0000 |       0.0000 |       0.0000 |       0.0000 |       0.0000 |       0.0000 |       0.0000 |       0.0000 |       0.0000 |       0.0000 |       0.0000 |       0.0000 |       0.0000 |       0.0000 |       0.0000 |       0.0000 |       0.0000 |       0.0000 |       0.0000 |       0.0000 |       0.0000 |       0.0000 |       0.0000 |       0.0000 |       0.0000 |       0.0000 |       0.0000 |       0.0000 |       0.0000 |       0.0000 |       0.0000 |       0.0000 |       0.0000 |       0.0000 |       0.0000 |       0.0000 |       0.0000 |       0.0000 |
-------------------------------------------------------------------------------------------------
sim-bpred                                     4096 |         4096 |         4096 |         4096 |         4096 |         4096 |         4096 |         8192 |         8192 |         8192 |         8192 |         8192 |         8192 |         8192 |        16384 |        16384 |        16384 |        16384 |        16384 |        16384 |        16384 |        32768 |        32768 |        32768 |        32768 |        32768 |        32768 |        32768 |        65536 |        65536 |        65536 |        65536 |        65536 |        65536 |        65536 |       131072 |       131072 |       131072 |       131072 |       131072 |       131072 |       131072 |       262144 |       262144 |       262144 |       262144 |       262144 |       262144 |       262144 |       524288 |       524288 |       524288 |       524288 |       524288 |       524288 |       524288 |      1048576 |      1048576 |      1048576 |      1048576 |      1048576 |      1048576 |      1048576 |      2097152 |      2097152 |      2097152 |      2097152 |      2097152 |      2097152 |      2097152 |      4194304 |      4194304 |      4194304 |      4194304 |      4194304 |      4194304 |      4194304 |
-bpred bimod -bpred:bimod 512
-bpred bimod -bpred:bimod 1024
-bpred bimod -bpred:bimod 2048
-bpred 2lev -bpred:2lev 1 512 10 1
-bpred 2lev -bpred:2lev 1 1024 10 1
-bpred 2lev -bpred:2lev 1 2048 10 1
-bpred 2lev -bpred:2lev 1 4096 10 1
-------------------------------------------------------------------------------------------------
sim_num_insn                                471120 |       471120 |       471120 |       471120 |       471120 |       471120 |       471120 |      1007806 |      1007806 |      1007806 |      1007806 |      1007806 |      1007806 |      1007806 |      2180479 |      2180479 |      2180479 |      2180479 |      2180479 |      2180479 |      2180479 |      4634910 |      4634910 |      4634910 |      4634910 |      4634910 |      4634910 |      4634910 |      9922524 |      9922524 |      9922524 |      9922524 |      9922524 |      9922524 |      9922524 |     20812804 |     20812804 |     20812804 |     20812804 |     20812804 |     20812804 |     20812804 |     44338371 |     44338371 |     44338371 |     44338371 |     44338371 |     44338371 |     44338371 |     92368212 |     92368212 |     92368212 |     92368212 |     92368212 |     92368212 |     92368212 |    193281450 |    193281450 |    193281450 |    193281450 |    193281450 |    193281450 |    193281450 |    567110692 |    567110692 |    567110692 |    567110692 |    567110692 |    567110692 |    567110692 |   1311997847 |   1311997847 |   1311997847 |   1311997847 |   1311997847 |   1311997847 |   1311997847 |
sim_num_refs                                123979 |       123979 |       123979 |       123979 |       123979 |       123979 |       123979 |       260350 |       260350 |       260350 |       260350 |       260350 |       260350 |       260350 |       555113 |       555113 |       555113 |       555113 |       555113 |       555113 |       555113 |      1173702 |      1173702 |      1173702 |      1173702 |      1173702 |      1173702 |      1173702 |      2491339 |      2491339 |      2491339 |      2491339 |      2491339 |      2491339 |      2491339 |      5226038 |      5226038 |      5226038 |      5226038 |      5226038 |      5226038 |      5226038 |     11057426 |     11057426 |     11057426 |     11057426 |     11057426 |     11057426 |     11057426 |     23035460 |     23035460 |     23035460 |     23035460 |     23035460 |     23035460 |     23035460 |     48162636 |     48162636 |     48162636 |     48162636 |     48162636 |     48162636 |     48162636 |    133061308 |    133061308 |    133061308 |    133061308 |    133061308 |    133061308 |    133061308 |    291513177 |    291513177 |    291513177 |    291513177 |    291513177 |    291513177 |    291513177 |
sim_elapsed_time                                 1 |            1 |            1 |            1 |            1 |            1 |            1 |            1 |            1 |            1 |            1 |            1 |            1 |            1 |            1 |            1 |            1 |            1 |            1 |            1 |            1 |            1 |            1 |            1 |            1 |            1 |            1 |            1 |            1 |            1 |            1 |            1 |            1 |            2 |            1 |            3 |            2 |            2 |            3 |            2 |            3 |            2 |            5 |            5 |            5 |            5 |            5 |            5 |            5 |           10 |           10 |           11 |           10 |           10 |           11 |           10 |           22 |           21 |           22 |           22 |           22 |           22 |           22 |           67 |           67 |           66 |           69 |           68 |           69 |           68 |          155 |          156 |          155 |          160 |          160 |          161 |          160 |
sim_inst_rate                          471120.0000 |  471120.0000 |  471120.0000 |  471120.0000 |  471120.0000 |  471120.0000 |  471120.0000 | 1007806.0000 | 1007806.0000 | 1007806.0000 | 1007806.0000 | 1007806.0000 | 1007806.0000 | 1007806.0000 | 2180479.0000 | 2180479.0000 | 2180479.0000 | 2180479.0000 | 2180479.0000 | 2180479.0000 | 2180479.0000 | 4634910.0000 | 4634910.0000 | 4634910.0000 | 4634910.0000 | 4634910.0000 | 4634910.0000 | 4634910.0000 | 9922524.0000 | 9922524.0000 | 9922524.0000 | 9922524.0000 | 9922524.0000 | 4961262.0000 | 9922524.0000 | 6937601.3333 |10406402.0000 |10406402.0000 | 6937601.3333 |10406402.0000 | 6937601.3333 |10406402.0000 | 8867674.2000 | 8867674.2000 | 8867674.2000 | 8867674.2000 | 8867674.2000 | 8867674.2000 | 8867674.2000 | 9236821.2000 | 9236821.2000 | 8397110.1818 | 9236821.2000 | 9236821.2000 | 8397110.1818 | 9236821.2000 | 8785520.4545 | 9203878.5714 | 8785520.4545 | 8785520.4545 | 8785520.4545 | 8785520.4545 | 8785520.4545 | 8464338.6866 | 8464338.6866 | 8592586.2424 | 8218995.5362 | 8339863.1176 | 8218995.5362 | 8339863.1176 | 8464502.2387 | 8410242.6090 | 8464502.2387 | 8199986.5438 | 8199986.5438 | 8149054.9503 | 8199986.5438 |
sim_num_branches                             77308 |        77308 |        77308 |        77308 |        77308 |        77308 |        77308 |       166681 |       166681 |       166681 |       166681 |       166681 |       166681 |       166681 |       362708 |       362708 |       362708 |       362708 |       362708 |       362708 |       362708 |       775975 |       775975 |       775975 |       775975 |       775975 |       775975 |       775975 |      1668399 |      1668399 |      1668399 |      1668399 |      1668399 |      1668399 |      1668399 |      3513476 |      3513476 |      3513476 |      3513476 |      3513476 |      3513476 |      3513476 |      7510530 |      7510530 |      7510530 |      7510530 |      7510530 |      7510530 |      7510530 |     15691964 |     15691964 |     15691964 |     15691964 |     15691964 |     15691964 |     15691964 |     32971892 |     32971892 |     32971892 |     32971892 |     32971892 |     32971892 |     32971892 |    101872096 |    101872096 |    101872096 |    101872096 |    101872096 |    101872096 |    101872096 |    253595364 |    253595364 |    253595364 |    253595364 |    253595364 |    253595364 |    253595364 |
sim_IPB                                     6.0941 |       6.0941 |       6.0941 |       6.0941 |       6.0941 |       6.0941 |       6.0941 |       6.0463 |       6.0463 |       6.0463 |       6.0463 |       6.0463 |       6.0463 |       6.0463 |       6.0117 |       6.0117 |       6.0117 |       6.0117 |       6.0117 |       6.0117 |       6.0117 |       5.9730 |       5.9730 |       5.9730 |       5.9730 |       5.9730 |       5.9730 |       5.9730 |       5.9473 |       5.9473 |       5.9473 |       5.9473 |       5.9473 |       5.9473 |       5.9473 |       5.9237 |       5.9237 |       5.9237 |       5.9237 |       5.9237 |       5.9237 |       5.9237 |       5.9035 |       5.9035 |       5.9035 |       5.9035 |       5.9035 |       5.9035 |       5.9035 |       5.8863 |       5.8863 |       5.8863 |       5.8863 |       5.8863 |       5.8863 |       5.8863 |       5.8620 |       5.8620 |       5.8620 |       5.8620 |       5.8620 |       5.8620 |       5.8620 |       5.5669 |       5.5669 |       5.5669 |       5.5669 |       5.5669 |       5.5669 |       5.5669 |       5.1736 |       5.1736 |       5.1736 |       5.1736 |       5.1736 |       5.1736 |       5.1736 |
bpred_bimod.lookups                          77308 |        77308 |        77308 |xxxxxxxxxxxxx |xxxxxxxxxxxxx |xxxxxxxxxxxxx |xxxxxxxxxxxxx |       166681 |       166681 |       166681 |xxxxxxxxxxxxx |xxxxxxxxxxxxx |xxxxxxxxxxxxx |xxxxxxxxxxxxx |       362708 |       362708 |       362708 |xxxxxxxxxxxxx |xxxxxxxxxxxxx |xxxxxxxxxxxxx |xxxxxxxxxxxxx |       775975 |       775975 |       775975 |xxxxxxxxxxxxx |xxxxxxxxxxxxx |xxxxxxxxxxxxx |xxxxxxxxxxxxx |      1668399 |      1668399 |      1668399 |xxxxxxxxxxxxx |xxxxxxxxxxxxx |xxxxxxxxxxxxx |xxxxxxxxxxxxx |      3513476 |      3513476 |      3513476 |xxxxxxxxxxxxx |xxxxxxxxxxxxx |xxxxxxxxxxxxx |xxxxxxxxxxxxx |      7510530 |      7510530 |      7510530 |xxxxxxxxxxxxx |xxxxxxxxxxxxx |xxxxxxxxxxxxx |xxxxxxxxxxxxx |     15691964 |     15691964 |     15691964 |xxxxxxxxxxxxx |xxxxxxxxxxxxx |xxxxxxxxxxxxx |xxxxxxxxxxxxx |     32971892 |     32971892 |     32971892 |xxxxxxxxxxxxx |xxxxxxxxxxxxx |xxxxxxxxxxxxx |xxxxxxxxxxxxx |    101872096 |    101872096 |    101872096 |xxxxxxxxxxxxx |xxxxxxxxxxxxx |xxxxxxxxxxxxx |xxxxxxxxxxxxx |    253595364 |    253595364 |    253595364 |
bpred_bimod.updates                          77308 |        77308 |        77308 |xxxxxxxxxxxxx |xxxxxxxxxxxxx |xxxxxxxxxxxxx |xxxxxxxxxxxxx |       166681 |       166681 |       166681 |xxxxxxxxxxxxx |xxxxxxxxxxxxx |xxxxxxxxxxxxx |xxxxxxxxxxxxx |       362708 |       362708 |       362708 |xxxxxxxxxxxxx |xxxxxxxxxxxxx |xxxxxxxxxxxxx |xxxxxxxxxxxxx |       775975 |       775975 |       775975 |xxxxxxxxxxxxx |xxxxxxxxxxxxx |xxxxxxxxxxxxx |xxxxxxxxxxxxx |      1668399 |      1668399 |      1668399 |xxxxxxxxxxxxx |xxxxxxxxxxxxx |xxxxxxxxxxxxx |xxxxxxxxxxxxx |      3513476 |      3513476 |      3513476 |xxxxxxxxxxxxx |xxxxxxxxxxxxx |xxxxxxxxxxxxx |xxxxxxxxxxxxx |      7510530 |      7510530 |      7510530 |xxxxxxxxxxxxx |xxxxxxxxxxxxx |xxxxxxxxxxxxx |xxxxxxxxxxxxx |     15691964 |     15691964 |     15691964 |xxxxxxxxxxxxx |xxxxxxxxxxxxx |xxxxxxxxxxxxx |xxxxxxxxxxxxx |     32971892 |     32971892 |     32971892 |xxxxxxxxxxxxx |xxxxxxxxxxxxx |xxxxxxxxxxxxx |xxxxxxxxxxxxx |    101872096 |    101872096 |    101872096 |xxxxxxxxxxxxx |xxxxxxxxxxxxx |xxxxxxxxxxxxx |xxxxxxxxxxxxx |    253595364 |    253595364 |    253595364 |
bpred_bimod.addr_hits                        55832 |        55833 |        55833 |xxxxxxxxxxxxx |xxxxxxxxxxxxx |xxxxxxxxxxxxx |xxxxxxxxxxxxx |       120546 |       120544 |       120544 |xxxxxxxxxxxxx |xxxxxxxxxxxxx |xxxxxxxxxxxxx |xxxxxxxxxxxxx |       266229 |       266231 |       266232 |xxxxxxxxxxxxx |xxxxxxxxxxxxx |xxxxxxxxxxxxx |xxxxxxxxxxxxx |       565017 |       565017 |       565018 |xxxxxxxxxxxxx |xxxxxxxxxxxxx |xxxxxxxxxxxxx |xxxxxxxxxxxxx |      1220874 |      1220872 |      1220873 |xxxxxxxxxxxxx |xxxxxxxxxxxxx |xxxxxxxxxxxxx |xxxxxxxxxxxxx |      2558645 |      2558644 |      2558645 |xxxxxxxxxxxxx |xxxxxxxxxxxxx |xxxxxxxxxxxxx |xxxxxxxxxxxxx |      5481156 |      5481156 |      5481157 |xxxxxxxxxxxxx |xxxxxxxxxxxxx |xxxxxxxxxxxxx |xxxxxxxxxxxxx |     11396265 |     11396264 |     11396265 |xxxxxxxxxxxxx |xxxxxxxxxxxxx |xxxxxxxxxxxxx |xxxxxxxxxxxxx |     23911711 |     23911710 |     23911711 |xxxxxxxxxxxxx |xxxxxxxxxxxxx |xxxxxxxxxxxxx |xxxxxxxxxxxxx |     83514883 |     83514906 |     83514907 |xxxxxxxxxxxxx |xxxxxxxxxxxxx |xxxxxxxxxxxxx |xxxxxxxxxxxxx |    217025420 |    217025461 |    217025462 |
bpred_bimod.dir_hits                         55953 |        55951 |        55951 |xxxxxxxxxxxxx |xxxxxxxxxxxxx |xxxxxxxxxxxxx |xxxxxxxxxxxxx |       120661 |       120657 |       120657 |xxxxxxxxxxxxx |xxxxxxxxxxxxx |xxxxxxxxxxxxx |xxxxxxxxxxxxx |       266342 |       266343 |       266345 |xxxxxxxxxxxxx |xxxxxxxxxxxxx |xxxxxxxxxxxxx |xxxxxxxxxxxxx |       565135 |       565133 |       565133 |xxxxxxxxxxxxx |xxxxxxxxxxxxx |xxxxxxxxxxxxx |xxxxxxxxxxxxx |      1220991 |      1220987 |      1220988 |xxxxxxxxxxxxx |xxxxxxxxxxxxx |xxxxxxxxxxxxx |xxxxxxxxxxxxx |      2558761 |      2558759 |      2558759 |xxxxxxxxxxxxx |xxxxxxxxxxxxx |xxxxxxxxxxxxx |xxxxxxxxxxxxx |      5481277 |      5481275 |      5481275 |xxxxxxxxxxxxx |xxxxxxxxxxxxx |xxxxxxxxxxxxx |xxxxxxxxxxxxx |     11396384 |     11396381 |     11396381 |xxxxxxxxxxxxx |xxxxxxxxxxxxx |xxxxxxxxxxxxx |xxxxxxxxxxxxx |     23911828 |     23911826 |     23911827 |xxxxxxxxxxxxx |xxxxxxxxxxxxx |xxxxxxxxxxxxx |xxxxxxxxxxxxx |     83515049 |     83515070 |     83515069 |xxxxxxxxxxxxx |xxxxxxxxxxxxx |xxxxxxxxxxxxx |xxxxxxxxxxxxx |    217025586 |    217025623 |    217025623 |
bpred_bimod.misses                           21355 |        21357 |        21357 |xxxxxxxxxxxxx |xxxxxxxxxxxxx |xxxxxxxxxxxxx |xxxxxxxxxxxxx |        46020 |        46024 |        46024 |xxxxxxxxxxxxx |xxxxxxxxxxxxx |xxxxxxxxxxxxx |xxxxxxxxxxxxx |        96366 |        96365 |        96363 |xxxxxxxxxxxxx |xxxxxxxxxxxxx |xxxxxxxxxxxxx |xxxxxxxxxxxxx |       210840 |       210842 |       210842 |xxxxxxxxxxxxx |xxxxxxxxxxxxx |xxxxxxxxxxxxx |xxxxxxxxxxxxx |       447408 |       447412 |       447411 |xxxxxxxxxxxxx |xxxxxxxxxxxxx |xxxxxxxxxxxxx |xxxxxxxxxxxxx |       954715 |       954717 |       954717 |xxxxxxxxxxxxx |xxxxxxxxxxxxx |xxxxxxxxxxxxx |xxxxxxxxxxxxx |      2029253 |      2029255 |      2029255 |xxxxxxxxxxxxx |xxxxxxxxxxxxx |xxxxxxxxxxxxx |xxxxxxxxxxxxx |      4295580 |      4295583 |      4295583 |xxxxxxxxxxxxx |xxxxxxxxxxxxx |xxxxxxxxxxxxx |xxxxxxxxxxxxx |      9060064 |      9060066 |      9060065 |xxxxxxxxxxxxx |xxxxxxxxxxxxx |xxxxxxxxxxxxx |xxxxxxxxxxxxx |     18357047 |     18357026 |     18357027 |xxxxxxxxxxxxx |xxxxxxxxxxxxx |xxxxxxxxxxxxx |xxxxxxxxxxxxx |     36569778 |     36569741 |     36569741 |
bpred_bimod.jr_hits                             65 |           65 |           65 |xxxxxxxxxxxxx |xxxxxxxxxxxxx |xxxxxxxxxxxxx |xxxxxxxxxxxxx |           65 |           65 |           65 |xxxxxxxxxxxxx |xxxxxxxxxxxxx |xxxxxxxxxxxxx |xxxxxxxxxxxxx |           65 |           65 |           65 |xxxxxxxxxxxxx |xxxxxxxxxxxxx |xxxxxxxxxxxxx |xxxxxxxxxxxxx |           65 |           65 |           65 |xxxxxxxxxxxxx |xxxxxxxxxxxxx |xxxxxxxxxxxxx |xxxxxxxxxxxxx |           65 |           65 |           65 |xxxxxxxxxxxxx |xxxxxxxxxxxxx |xxxxxxxxxxxxx |xxxxxxxxxxxxx |           65 |           65 |           65 |xxxxxxxxxxxxx |xxxxxxxxxxxxx |xxxxxxxxxxxxx |xxxxxxxxxxxxx |           65 |           65 |           65 |xxxxxxxxxxxxx |xxxxxxxxxxxxx |xxxxxxxxxxxxx |xxxxxxxxxxxxx |           65 |           65 |           65 |xxxxxxxxxxxxx |xxxxxxxxxxxxx |xxxxxxxxxxxxx |xxxxxxxxxxxxx |           65 |           65 |           65 |xxxxxxxxxxxxx |xxxxxxxxxxxxx |xxxxxxxxxxxxx |xxxxxxxxxxxxx |          110 |          110 |          110 |xxxxxxxxxxxxx |xxxxxxxxxxxxx |xxxxxxxxxxxxx |xxxxxxxxxxxxx |          122 |          122 |          122 |
bpred_bimod.jr_seen                             65 |           65 |           65 |xxxxxxxxxxxxx |xxxxxxxxxxxxx |xxxxxxxxxxxxx |xxxxxxxxxxxxx |           65 |           65 |           65 |xxxxxxxxxxxxx |xxxxxxxxxxxxx |xxxxxxxxxxxxx |xxxxxxxxxxxxx |           65 |           65 |           65 |xxxxxxxxxxxxx |xxxxxxxxxxxxx |xxxxxxxxxxxxx |xxxxxxxxxxxxx |           65 |           65 |           65 |xxxxxxxxxxxxx |xxxxxxxxxxxxx |xxxxxxxxxxxxx |xxxxxxxxxxxxx |           65 |           65 |           65 |xxxxxxxxxxxxx |xxxxxxxxxxxxx |xxxxxxxxxxxxx |xxxxxxxxxxxxx |           65 |           65 |           65 |xxxxxxxxxxxxx |xxxxxxxxxxxxx |xxxxxxxxxxxxx |xxxxxxxxxxxxx |           65 |           65 |           65 |xxxxxxxxxxxxx |xxxxxxxxxxxxx |xxxxxxxxxxxxx |xxxxxxxxxxxxx |           65 |           65 |           65 |xxxxxxxxxxxxx |xxxxxxxxxxxxx |xxxxxxxxxxxxx |xxxxxxxxxxxxx |           65 |           65 |           65 |xxxxxxxxxxxxx |xxxxxxxxxxxxx |xxxxxxxxxxxxx |xxxxxxxxxxxxx |          111 |          111 |          111 |xxxxxxxxxxxxx |xxxxxxxxxxxxx |xxxxxxxxxxxxx |xxxxxxxxxxxxx |          123 |          123 |          123 |
bpred_bimod.jr_non_ras_hits.PP                   0 |            0 |            0 |xxxxxxxxxxxxx |xxxxxxxxxxxxx |xxxxxxxxxxxxx |xxxxxxxxxxxxx |            0 |            0 |            0 |xxxxxxxxxxxxx |xxxxxxxxxxxxx |xxxxxxxxxxxxx |xxxxxxxxxxxxx |            0 |            0 |            0 |xxxxxxxxxxxxx |xxxxxxxxxxxxx |xxxxxxxxxxxxx |xxxxxxxxxxxxx |            0 |            0 |            0 |xxxxxxxxxxxxx |xxxxxxxxxxxxx |xxxxxxxxxxxxx |xxxxxxxxxxxxx |            0 |            0 |            0 |xxxxxxxxxxxxx |xxxxxxxxxxxxx |xxxxxxxxxxxxx |xxxxxxxxxxxxx |            0 |            0 |            0 |xxxxxxxxxxxxx |xxxxxxxxxxxxx |xxxxxxxxxxxxx |xxxxxxxxxxxxx |            0 |            0 |            0 |xxxxxxxxxxxxx |xxxxxxxxxxxxx |xxxxxxxxxxxxx |xxxxxxxxxxxxx |            0 |            0 |            0 |xxxxxxxxxxxxx |xxxxxxxxxxxxx |xxxxxxxxxxxxx |xxxxxxxxxxxxx |            0 |            0 |            0 |xxxxxxxxxxxxx |xxxxxxxxxxxxx |xxxxxxxxxxxxx |xxxxxxxxxxxxx |            0 |            0 |            0 |xxxxxxxxxxxxx |xxxxxxxxxxxxx |xxxxxxxxxxxxx |xxxxxxxxxxxxx |            0 |            0 |            0 |
bpred_bimod.jr_non_ras_seen.PP                   0 |            0 |            0 |xxxxxxxxxxxxx |xxxxxxxxxxxxx |xxxxxxxxxxxxx |xxxxxxxxxxxxx |            0 |            0 |            0 |xxxxxxxxxxxxx |xxxxxxxxxxxxx |xxxxxxxxxxxxx |xxxxxxxxxxxxx |            0 |            0 |            0 |xxxxxxxxxxxxx |xxxxxxxxxxxxx |xxxxxxxxxxxxx |xxxxxxxxxxxxx |            0 |            0 |            0 |xxxxxxxxxxxxx |xxxxxxxxxxxxx |xxxxxxxxxxxxx |xxxxxxxxxxxxx |            0 |            0 |            0 |xxxxxxxxxxxxx |xxxxxxxxxxxxx |xxxxxxxxxxxxx |xxxxxxxxxxxxx |            0 |            0 |            0 |xxxxxxxxxxxxx |xxxxxxxxxxxxx |xxxxxxxxxxxxx |xxxxxxxxxxxxx |            0 |            0 |            0 |xxxxxxxxxxxxx |xxxxxxxxxxxxx |xxxxxxxxxxxxx |xxxxxxxxxxxxx |            0 |            0 |            0 |xxxxxxxxxxxxx |xxxxxxxxxxxxx |xxxxxxxxxxxxx |xxxxxxxxxxxxx |            0 |            0 |            0 |xxxxxxxxxxxxx |xxxxxxxxxxxxx |xxxxxxxxxxxxx |xxxxxxxxxxxxx |            1 |            1 |            1 |xxxxxxxxxxxxx |xxxxxxxxxxxxx |xxxxxxxxxxxxx |xxxxxxxxxxxxx |            1 |            1 |            1 |
bpred_bimod.bpred_addr_rate                 0.7222 |       0.7222 |       0.7222 |xxxxxxxxxxxxx |xxxxxxxxxxxxx |xxxxxxxxxxxxx |xxxxxxxxxxxxx |       0.7232 |       0.7232 |       0.7232 |xxxxxxxxxxxxx |xxxxxxxxxxxxx |xxxxxxxxxxxxx |xxxxxxxxxxxxx |       0.7340 |       0.7340 |       0.7340 |xxxxxxxxxxxxx |xxxxxxxxxxxxx |xxxxxxxxxxxxx |xxxxxxxxxxxxx |       0.7281 |       0.7281 |       0.7281 |xxxxxxxxxxxxx |xxxxxxxxxxxxx |xxxxxxxxxxxxx |xxxxxxxxxxxxx |       0.7318 |       0.7318 |       0.7318 |xxxxxxxxxxxxx |xxxxxxxxxxxxx |xxxxxxxxxxxxx |xxxxxxxxxxxxx |       0.7282 |       0.7282 |       0.7282 |xxxxxxxxxxxxx |xxxxxxxxxxxxx |xxxxxxxxxxxxx |xxxxxxxxxxxxx |       0.7298 |       0.7298 |       0.7298 |xxxxxxxxxxxxx |xxxxxxxxxxxxx |xxxxxxxxxxxxx |xxxxxxxxxxxxx |       0.7262 |       0.7262 |       0.7262 |xxxxxxxxxxxxx |xxxxxxxxxxxxx |xxxxxxxxxxxxx |xxxxxxxxxxxxx |       0.7252 |       0.7252 |       0.7252 |xxxxxxxxxxxxx |xxxxxxxxxxxxx |xxxxxxxxxxxxx |xxxxxxxxxxxxx |       0.8198 |       0.8198 |       0.8198 |xxxxxxxxxxxxx |xxxxxxxxxxxxx |xxxxxxxxxxxxx |xxxxxxxxxxxxx |       0.8558 |       0.8558 |       0.8558 |
bpred_bimod.bpred_dir_rate                  0.7238 |       0.7237 |       0.7237 |xxxxxxxxxxxxx |xxxxxxxxxxxxx |xxxxxxxxxxxxx |xxxxxxxxxxxxx |       0.7239 |       0.7239 |       0.7239 |xxxxxxxxxxxxx |xxxxxxxxxxxxx |xxxxxxxxxxxxx |xxxxxxxxxxxxx |       0.7343 |       0.7343 |       0.7343 |xxxxxxxxxxxxx |xxxxxxxxxxxxx |xxxxxxxxxxxxx |xxxxxxxxxxxxx |       0.7283 |       0.7283 |       0.7283 |xxxxxxxxxxxxx |xxxxxxxxxxxxx |xxxxxxxxxxxxx |xxxxxxxxxxxxx |       0.7318 |       0.7318 |       0.7318 |xxxxxxxxxxxxx |xxxxxxxxxxxxx |xxxxxxxxxxxxx |xxxxxxxxxxxxx |       0.7283 |       0.7283 |       0.7283 |xxxxxxxxxxxxx |xxxxxxxxxxxxx |xxxxxxxxxxxxx |xxxxxxxxxxxxx |       0.7298 |       0.7298 |       0.7298 |xxxxxxxxxxxxx |xxxxxxxxxxxxx |xxxxxxxxxxxxx |xxxxxxxxxxxxx |       0.7263 |       0.7263 |       0.7263 |xxxxxxxxxxxxx |xxxxxxxxxxxxx |xxxxxxxxxxxxx |xxxxxxxxxxxxx |       0.7252 |       0.7252 |       0.7252 |xxxxxxxxxxxxx |xxxxxxxxxxxxx |xxxxxxxxxxxxx |xxxxxxxxxxxxx |       0.8198 |       0.8198 |       0.8198 |xxxxxxxxxxxxx |xxxxxxxxxxxxx |xxxxxxxxxxxxx |xxxxxxxxxxxxx |       0.8558 |       0.8558 |       0.8558 |
bpred_bimod.bpred_jr_rate                   1.0000 |       1.0000 |       1.0000 |xxxxxxxxxxxxx |xxxxxxxxxxxxx |xxxxxxxxxxxxx |xxxxxxxxxxxxx |       1.0000 |       1.0000 |       1.0000 |xxxxxxxxxxxxx |xxxxxxxxxxxxx |xxxxxxxxxxxxx |xxxxxxxxxxxxx |       1.0000 |       1.0000 |       1.0000 |xxxxxxxxxxxxx |xxxxxxxxxxxxx |xxxxxxxxxxxxx |xxxxxxxxxxxxx |       1.0000 |       1.0000 |       1.0000 |xxxxxxxxxxxxx |xxxxxxxxxxxxx |xxxxxxxxxxxxx |xxxxxxxxxxxxx |       1.0000 |       1.0000 |       1.0000 |xxxxxxxxxxxxx |xxxxxxxxxxxxx |xxxxxxxxxxxxx |xxxxxxxxxxxxx |       1.0000 |       1.0000 |       1.0000 |xxxxxxxxxxxxx |xxxxxxxxxxxxx |xxxxxxxxxxxxx |xxxxxxxxxxxxx |       1.0000 |       1.0000 |       1.0000 |xxxxxxxxxxxxx |xxxxxxxxxxxxx |xxxxxxxxxxxxx |xxxxxxxxxxxxx |       1.0000 |       1.0000 |       1.0000 |xxxxxxxxxxxxx |xxxxxxxxxxxxx |xxxxxxxxxxxxx |xxxxxxxxxxxxx |       1.0000 |       1.0000 |       1.0000 |xxxxxxxxxxxxx |xxxxxxxxxxxxx |xxxxxxxxxxxxx |xxxxxxxxxxxxx |       0.9910 |       0.9910 |       0.9910 |xxxxxxxxxxxxx |xxxxxxxxxxxxx |xxxxxxxxxxxxx |xxxxxxxxxxxxx |       0.9919 |       0.9919 |       0.9919 |
bpred_bimod.bpred_jr_non_ras_rate.PP       <error: |      <error: |      <error: |xxxxxxxxxxxxx |xxxxxxxxxxxxx |xxxxxxxxxxxxx |xxxxxxxxxxxxx |      <error: |      <error: |      <error: |xxxxxxxxxxxxx |xxxxxxxxxxxxx |xxxxxxxxxxxxx |xxxxxxxxxxxxx |      <error: |      <error: |      <error: |xxxxxxxxxxxxx |xxxxxxxxxxxxx |xxxxxxxxxxxxx |xxxxxxxxxxxxx |      <error: |      <error: |      <error: |xxxxxxxxxxxxx |xxxxxxxxxxxxx |xxxxxxxxxxxxx |xxxxxxxxxxxxx |      <error: |      <error: |      <error: |xxxxxxxxxxxxx |xxxxxxxxxxxxx |xxxxxxxxxxxxx |xxxxxxxxxxxxx |      <error: |      <error: |      <error: |xxxxxxxxxxxxx |xxxxxxxxxxxxx |xxxxxxxxxxxxx |xxxxxxxxxxxxx |      <error: |      <error: |      <error: |xxxxxxxxxxxxx |xxxxxxxxxxxxx |xxxxxxxxxxxxx |xxxxxxxxxxxxx |      <error: |      <error: |      <error: |xxxxxxxxxxxxx |xxxxxxxxxxxxx |xxxxxxxxxxxxx |xxxxxxxxxxxxx |      <error: |      <error: |      <error: |xxxxxxxxxxxxx |xxxxxxxxxxxxx |xxxxxxxxxxxxx |xxxxxxxxxxxxx |       0.0000 |       0.0000 |       0.0000 |xxxxxxxxxxxxx |xxxxxxxxxxxxx |xxxxxxxxxxxxx |xxxxxxxxxxxxx |       0.0000 |       0.0000 |       0.0000 |
bpred_bimod.retstack_pushes                     67 |           67 |           67 |xxxxxxxxxxxxx |xxxxxxxxxxxxx |xxxxxxxxxxxxx |xxxxxxxxxxxxx |           67 |           67 |           67 |xxxxxxxxxxxxx |xxxxxxxxxxxxx |xxxxxxxxxxxxx |xxxxxxxxxxxxx |           67 |           67 |           67 |xxxxxxxxxxxxx |xxxxxxxxxxxxx |xxxxxxxxxxxxx |xxxxxxxxxxxxx |           67 |           67 |           67 |xxxxxxxxxxxxx |xxxxxxxxxxxxx |xxxxxxxxxxxxx |xxxxxxxxxxxxx |           67 |           67 |           67 |xxxxxxxxxxxxx |xxxxxxxxxxxxx |xxxxxxxxxxxxx |xxxxxxxxxxxxx |           67 |           67 |           67 |xxxxxxxxxxxxx |xxxxxxxxxxxxx |xxxxxxxxxxxxx |xxxxxxxxxxxxx |           67 |           67 |           67 |xxxxxxxxxxxxx |xxxxxxxxxxxxx |xxxxxxxxxxxxx |xxxxxxxxxxxxx |           67 |           67 |           67 |xxxxxxxxxxxxx |xxxxxxxxxxxxx |xxxxxxxxxxxxx |xxxxxxxxxxxxx |           67 |           67 |           67 |xxxxxxxxxxxxx |xxxxxxxxxxxxx |xxxxxxxxxxxxx |xxxxxxxxxxxxx |          112 |          112 |          112 |xxxxxxxxxxxxx |xxxxxxxxxxxxx |xxxxxxxxxxxxx |xxxxxxxxxxxxx |          124 |          124 |          124 |
bpred_bimod.retstack_pops                       65 |           65 |           65 |xxxxxxxxxxxxx |xxxxxxxxxxxxx |xxxxxxxxxxxxx |xxxxxxxxxxxxx |           65 |           65 |           65 |xxxxxxxxxxxxx |xxxxxxxxxxxxx |xxxxxxxxxxxxx |xxxxxxxxxxxxx |           65 |           65 |           65 |xxxxxxxxxxxxx |xxxxxxxxxxxxx |xxxxxxxxxxxxx |xxxxxxxxxxxxx |           65 |           65 |           65 |xxxxxxxxxxxxx |xxxxxxxxxxxxx |xxxxxxxxxxxxx |xxxxxxxxxxxxx |           65 |           65 |           65 |xxxxxxxxxxxxx |xxxxxxxxxxxxx |xxxxxxxxxxxxx |xxxxxxxxxxxxx |           65 |           65 |           65 |xxxxxxxxxxxxx |xxxxxxxxxxxxx |xxxxxxxxxxxxx |xxxxxxxxxxxxx |           65 |           65 |           65 |xxxxxxxxxxxxx |xxxxxxxxxxxxx |xxxxxxxxxxxxx |xxxxxxxxxxxxx |           65 |           65 |           65 |xxxxxxxxxxxxx |xxxxxxxxxxxxx |xxxxxxxxxxxxx |xxxxxxxxxxxxx |           65 |           65 |           65 |xxxxxxxxxxxxx |xxxxxxxxxxxxx |xxxxxxxxxxxxx |xxxxxxxxxxxxx |          110 |          110 |          110 |xxxxxxxxxxxxx |xxxxxxxxxxxxx |xxxxxxxxxxxxx |xxxxxxxxxxxxx |          122 |          122 |          122 |
bpred_bimod.used_ras.PP                         65 |           65 |           65 |xxxxxxxxxxxxx |xxxxxxxxxxxxx |xxxxxxxxxxxxx |xxxxxxxxxxxxx |           65 |           65 |           65 |xxxxxxxxxxxxx |xxxxxxxxxxxxx |xxxxxxxxxxxxx |xxxxxxxxxxxxx |           65 |           65 |           65 |xxxxxxxxxxxxx |xxxxxxxxxxxxx |xxxxxxxxxxxxx |xxxxxxxxxxxxx |           65 |           65 |           65 |xxxxxxxxxxxxx |xxxxxxxxxxxxx |xxxxxxxxxxxxx |xxxxxxxxxxxxx |           65 |           65 |           65 |xxxxxxxxxxxxx |xxxxxxxxxxxxx |xxxxxxxxxxxxx |xxxxxxxxxxxxx |           65 |           65 |           65 |xxxxxxxxxxxxx |xxxxxxxxxxxxx |xxxxxxxxxxxxx |xxxxxxxxxxxxx |           65 |           65 |           65 |xxxxxxxxxxxxx |xxxxxxxxxxxxx |xxxxxxxxxxxxx |xxxxxxxxxxxxx |           65 |           65 |           65 |xxxxxxxxxxxxx |xxxxxxxxxxxxx |xxxxxxxxxxxxx |xxxxxxxxxxxxx |           65 |           65 |           65 |xxxxxxxxxxxxx |xxxxxxxxxxxxx |xxxxxxxxxxxxx |xxxxxxxxxxxxx |          110 |          110 |          110 |xxxxxxxxxxxxx |xxxxxxxxxxxxx |xxxxxxxxxxxxx |xxxxxxxxxxxxx |          122 |          122 |          122 |
bpred_bimod.ras_hits.PP                         65 |           65 |           65 |xxxxxxxxxxxxx |xxxxxxxxxxxxx |xxxxxxxxxxxxx |xxxxxxxxxxxxx |           65 |           65 |           65 |xxxxxxxxxxxxx |xxxxxxxxxxxxx |xxxxxxxxxxxxx |xxxxxxxxxxxxx |           65 |           65 |           65 |xxxxxxxxxxxxx |xxxxxxxxxxxxx |xxxxxxxxxxxxx |xxxxxxxxxxxxx |           65 |           65 |           65 |xxxxxxxxxxxxx |xxxxxxxxxxxxx |xxxxxxxxxxxxx |xxxxxxxxxxxxx |           65 |           65 |           65 |xxxxxxxxxxxxx |xxxxxxxxxxxxx |xxxxxxxxxxxxx |xxxxxxxxxxxxx |           65 |           65 |           65 |xxxxxxxxxxxxx |xxxxxxxxxxxxx |xxxxxxxxxxxxx |xxxxxxxxxxxxx |           65 |           65 |           65 |xxxxxxxxxxxxx |xxxxxxxxxxxxx |xxxxxxxxxxxxx |xxxxxxxxxxxxx |           65 |           65 |           65 |xxxxxxxxxxxxx |xxxxxxxxxxxxx |xxxxxxxxxxxxx |xxxxxxxxxxxxx |           65 |           65 |           65 |xxxxxxxxxxxxx |xxxxxxxxxxxxx |xxxxxxxxxxxxx |xxxxxxxxxxxxx |          110 |          110 |          110 |xxxxxxxxxxxxx |xxxxxxxxxxxxx |xxxxxxxxxxxxx |xxxxxxxxxxxxx |          122 |          122 |          122 |
bpred_bimod.ras_rate.PP                     1.0000 |       1.0000 |       1.0000 |xxxxxxxxxxxxx |xxxxxxxxxxxxx |xxxxxxxxxxxxx |xxxxxxxxxxxxx |       1.0000 |       1.0000 |       1.0000 |xxxxxxxxxxxxx |xxxxxxxxxxxxx |xxxxxxxxxxxxx |xxxxxxxxxxxxx |       1.0000 |       1.0000 |       1.0000 |xxxxxxxxxxxxx |xxxxxxxxxxxxx |xxxxxxxxxxxxx |xxxxxxxxxxxxx |       1.0000 |       1.0000 |       1.0000 |xxxxxxxxxxxxx |xxxxxxxxxxxxx |xxxxxxxxxxxxx |xxxxxxxxxxxxx |       1.0000 |       1.0000 |       1.0000 |xxxxxxxxxxxxx |xxxxxxxxxxxxx |xxxxxxxxxxxxx |xxxxxxxxxxxxx |       1.0000 |       1.0000 |       1.0000 |xxxxxxxxxxxxx |xxxxxxxxxxxxx |xxxxxxxxxxxxx |xxxxxxxxxxxxx |       1.0000 |       1.0000 |       1.0000 |xxxxxxxxxxxxx |xxxxxxxxxxxxx |xxxxxxxxxxxxx |xxxxxxxxxxxxx |       1.0000 |       1.0000 |       1.0000 |xxxxxxxxxxxxx |xxxxxxxxxxxxx |xxxxxxxxxxxxx |xxxxxxxxxxxxx |       1.0000 |       1.0000 |       1.0000 |xxxxxxxxxxxxx |xxxxxxxxxxxxx |xxxxxxxxxxxxx |xxxxxxxxxxxxx |       1.0000 |       1.0000 |       1.0000 |xxxxxxxxxxxxx |xxxxxxxxxxxxx |xxxxxxxxxxxxx |xxxxxxxxxxxxx |       1.0000 |       1.0000 |       1.0000 |
bpred_2lev.lookups                   xxxxxxxxxxxxx |xxxxxxxxxxxxx |xxxxxxxxxxxxx |        77308 |        77308 |        77308 |        77308 |xxxxxxxxxxxxx |xxxxxxxxxxxxx |xxxxxxxxxxxxx |       166681 |       166681 |       166681 |       166681 |xxxxxxxxxxxxx |xxxxxxxxxxxxx |xxxxxxxxxxxxx |       362708 |       362708 |       362708 |       362708 |xxxxxxxxxxxxx |xxxxxxxxxxxxx |xxxxxxxxxxxxx |       775975 |       775975 |       775975 |       775975 |xxxxxxxxxxxxx |xxxxxxxxxxxxx |xxxxxxxxxxxxx |      1668399 |      1668399 |      1668399 |      1668399 |xxxxxxxxxxxxx |xxxxxxxxxxxxx |xxxxxxxxxxxxx |      3513476 |      3513476 |      3513476 |      3513476 |xxxxxxxxxxxxx |xxxxxxxxxxxxx |xxxxxxxxxxxxx |      7510530 |      7510530 |      7510530 |      7510530 |xxxxxxxxxxxxx |xxxxxxxxxxxxx |xxxxxxxxxxxxx |     15691964 |     15691964 |     15691964 |     15691964 |xxxxxxxxxxxxx |xxxxxxxxxxxxx |xxxxxxxxxxxxx |     32971892 |     32971892 |     32971892 |     32971892 |xxxxxxxxxxxxx |xxxxxxxxxxxxx |xxxxxxxxxxxxx |    101872096 |    101872096 |    101872096 |    101872096 |xxxxxxxxxxxxx |xxxxxxxxxxxxx |xxxxxxxxxxxxx |    253595364 |    253595364 |    253595364 |    253595364 |
[...]
bpred_2lev.retstack_pushes           xxxxxxxxxxxxx |xxxxxxxxxxxxx |xxxxxxxxxxxxx |           67 |           67 |           67 |           67 |xxxxxxxxxxxxx |xxxxxxxxxxxxx |xxxxxxxxxxxxx |           67 |           67 |           67 |           67 |xxxxxxxxxxxxx |xxxxxxxxxxxxx |xxxxxxxxxxxxx |           67 |           67 |           67 |           67 |xxxxxxxxxxxxx |xxxxxxxxxxxxx |xxxxxxxxxxxxx |           67 |           67 |           67 |           67 |xxxxxxxxxxxxx |xxxxxxxxxxxxx |xxxxxxxxxxxxx |           67 |           67 |           67 |           67 |xxxxxxxxxxxxx |xxxxxxxxxxxxx |xxxxxxxxxxxxx |           67 |           67 |           67 |           67 |xxxxxxxxxxxxx |xxxxxxxxxxxxx |xxxxxxxxxxxxx |           67 |           67 |           67 |           67 |xxxxxxxxxxxxx |xxxxxxxxxxxxx |xxxxxxxxxxxxx |           67 |           67 |           67 |           67 |xxxxxxxxxxxxx |xxxxxxxxxxxxx |xxxxxxxxxxxxx |           67 |           67 |           67 |           67 |xxxxxxxxxxxxx |xxxxxxxxxxxxx |xxxxxxxxxxxxx |          112 |          112 |          112 |          112 |xxxxxxxxxxxxx |xxxxxxxxxxxxx |xxxxxxxxxxxxx |          124 |          124 |          124 |          124 |
bpred_2lev.retstack_pops             xxxxxxxxxxxxx |xxxxxxxxxxxxx |xxxxxxxxxxxxx |           65 |           65 |           65 |           65 |xxxxxxxxxxxxx |xxxxxxxxxxxxx |xxxxxxxxxxxxx |           65 |           65 |           65 |           65 |xxxxxxxxxxxxx |xxxxxxxxxxxxx |xxxxxxxxxxxxx |           65 |           65 |           65 |           65 |xxxxxxxxxxxxx |xxxxxxxxxxxxx |xxxxxxxxxxxxx |           65 |           65 |           65 |           65 |xxxxxxxxxxxxx |xxxxxxxxxxxxx |xxxxxxxxxxxxx |           65 |           65 |           65 |           65 |xxxxxxxxxxxxx |xxxxxxxxxxxxx |xxxxxxxxxxxxx |           65 |           65 |           65 |           65 |xxxxxxxxxxxxx |xxxxxxxxxxxxx |xxxxxxxxxxxxx |           65 |           65 |           65 |           65 |xxxxxxxxxxxxx |xxxxxxxxxxxxx |xxxxxxxxxxxxx |           65 |           65 |           65 |           65 |xxxxxxxxxxxxx |xxxxxxxxxxxxx |xxxxxxxxxxxxx |           65 |           65 |           65 |           65 |xxxxxxxxxxxxx |xxxxxxxxxxxxx |xxxxxxxxxxxxx |          110 |          110 |          110 |          110 |xxxxxxxxxxxxx |xxxxxxxxxxxxx |xxxxxxxxxxxxx |          122 |          122 |          122 |          122 |
bpred_2lev.used_ras.PP               xxxxxxxxxxxxx |xxxxxxxxxxxxx |xxxxxxxxxxxxx |           65 |           65 |           65 |           65 |xxxxxxxxxxxxx |xxxxxxxxxxxxx |xxxxxxxxxxxxx |           65 |           65 |           65 |           65 |xxxxxxxxxxxxx |xxxxxxxxxxxxx |xxxxxxxxxxxxx |           65 |           65 |           65 |           65 |xxxxxxxxxxxxx |xxxxxxxxxxxxx |xxxxxxxxxxxxx |           65 |           65 |           65 |           65 |xxxxxxxxxxxxx |xxxxxxxxxxxxx |xxxxxxxxxxxxx |           65 |           65 |           65 |           65 |xxxxxxxxxxxxx |xxxxxxxxxxxxx |xxxxxxxxxxxxx |           65 |           65 |           65 |           65 |xxxxxxxxxxxxx |xxxxxxxxxxxxx |xxxxxxxxxxxxx |           65 |           65 |           65 |           65 |xxxxxxxxxxxxx |xxxxxxxxxxxxx |xxxxxxxxxxxxx |           65 |           65 |           65 |           65 |xxxxxxxxxxxxx |xxxxxxxxxxxxx |xxxxxxxxxxxxx |           65 |           65 |           65 |           65 |xxxxxxxxxxxxx |xxxxxxxxxxxxx |xxxxxxxxxxxxx |          110 |          110 |          110 |          110 |xxxxxxxxxxxxx |xxxxxxxxxxxxx |xxxxxxxxxxxxx |          122 |          122 |          122 |          122 |
bpred_2lev.ras_hits.PP               xxxxxxxxxxxxx |xxxxxxxxxxxxx |xxxxxxxxxxxxx |           65 |           65 |           65 |           65 |xxxxxxxxxxxxx |xxxxxxxxxxxxx |xxxxxxxxxxxxx |           65 |           65 |           65 |           65 |xxxxxxxxxxxxx |xxxxxxxxxxxxx |xxxxxxxxxxxxx |           65 |           65 |           65 |           65 |xxxxxxxxxxxxx |xxxxxxxxxxxxx |xxxxxxxxxxxxx |           65 |           65 |           65 |           65 |xxxxxxxxxxxxx |xxxxxxxxxxxxx |xxxxxxxxxxxxx |           65 |           65 |           65 |           65 |xxxxxxxxxxxxx |xxxxxxxxxxxxx |xxxxxxxxxxxxx |           65 |           65 |           65 |           65 |xxxxxxxxxxxxx |xxxxxxxxxxxxx |xxxxxxxxxxxxx |           65 |           65 |           65 |           65 |xxxxxxxxxxxxx |xxxxxxxxxxxxx |xxxxxxxxxxxxx |           65 |           65 |           65 |           65 |xxxxxxxxxxxxx |xxxxxxxxxxxxx |xxxxxxxxxxxxx |           65 |           65 |           65 |           65 |xxxxxxxxxxxxx |xxxxxxxxxxxxx |xxxxxxxxxxxxx |          110 |          110 |          110 |          110 |xxxxxxxxxxxxx |xxxxxxxxxxxxx |xxxxxxxxxxxxx |          122 |          122 |          122 |          122 |
bpred_2lev.ras_rate.PP               xxxxxxxxxxxxx |xxxxxxxxxxxxx |xxxxxxxxxxxxx |       1.0000 |       1.0000 |       1.0000 |       1.0000 |xxxxxxxxxxxxx |xxxxxxxxxxxxx |xxxxxxxxxxxxx |       1.0000 |       1.0000 |       1.0000 |       1.0000 |xxxxxxxxxxxxx |xxxxxxxxxxxxx |xxxxxxxxxxxxx |       1.0000 |       1.0000 |       1.0000 |       1.0000 |xxxxxxxxxxxxx |xxxxxxxxxxxxx |xxxxxxxxxxxxx |       1.0000 |       1.0000 |       1.0000 |       1.0000 |xxxxxxxxxxxxx |xxxxxxxxxxxxx |xxxxxxxxxxxxx |       1.0000 |       1.0000 |       1.0000 |       1.0000 |xxxxxxxxxxxxx |xxxxxxxxxxxxx |xxxxxxxxxxxxx |       1.0000 |       1.0000 |       1.0000 |       1.0000 |xxxxxxxxxxxxx |xxxxxxxxxxxxx |xxxxxxxxxxxxx |       1.0000 |       1.0000 |       1.0000 |       1.0000 |xxxxxxxxxxxxx |xxxxxxxxxxxxx |xxxxxxxxxxxxx |       1.0000 |       1.0000 |       1.0000 |       1.0000 |xxxxxxxxxxxxx |xxxxxxxxxxxxx |xxxxxxxxxxxxx |       1.0000 |       1.0000 |       1.0000 |       1.0000 |xxxxxxxxxxxxx |xxxxxxxxxxxxx |xxxxxxxxxxxxx |       1.0000 |       1.0000 |       1.0000 |       1.0000 |xxxxxxxxxxxxx |xxxxxxxxxxxxx |xxxxxxxxxxxxx |       1.0000 |       1.0000 |       1.0000 |       1.0000 |

Command list: 
	sslittle-na-sstrix-gcc -Wall -O3 -funroll-loops -finline-functions  -DRANDOM_SIZE=4096 -DOFFSET=2 -DSORT=multi_quicksort_seq sorts/multi_quicksort_seq2052086349.c simpleMain.c -o multi_quicksort_seq941296307
	sim-cache -cache:dl1 dl1:256:32:1:l -cache:dl2 dl2:131072:32:1:l -cache:il1 il1:256:32:1:l -cache:il2 dl2 multi_quicksort_seq941296307
	sim-cache -cache:dl1 dl1:256:32:1:l -cache:dl2 dl2:65536:32:1:l -cache:il1 il1:256:32:1:l -cache:il2 dl2 multi_quicksort_seq941296307
	sim-cache -cache:dl1 dl1:1:32:256:l -cache:dl2 dl2:1:32:131072:l -cache:il1 il1:1:32:256:l -cache:il2 dl2 multi_quicksort_seq941296307
	sim-cache -cache:dl1 dl1:1:32:256:l -cache:dl2 dl2:1:32:65536:l -cache:il1 il1:1:32:256:l -cache:il2 dl2 multi_quicksort_seq941296307
	sim-bpred -bpred bimod -bpred:bimod 512 multi_quicksort_seq941296307
	sim-bpred -bpred bimod -bpred:bimod 1024 multi_quicksort_seq941296307
	sim-bpred -bpred bimod -bpred:bimod 2048 multi_quicksort_seq941296307
	sim-bpred -bpred 2lev -bpred:2lev 1 512 10 1 multi_quicksort_seq941296307
	sim-bpred -bpred 2lev -bpred:2lev 1 1024 10 1 multi_quicksort_seq941296307
	sim-bpred -bpred 2lev -bpred:2lev 1 2048 10 1 multi_quicksort_seq941296307
	sim-bpred -bpred 2lev -bpred:2lev 1 4096 10 1 multi_quicksort_seq941296307
	sslittle-na-sstrix-gcc -Wall -O3 -funroll-loops -finline-functions  -DRANDOM_SIZE=8192 -DOFFSET=2 -DSORT=multi_quicksort_seq sorts/multi_quicksort_seq2052086349.c simpleMain.c -o multi_quicksort_seq941296307
	sim-cache -cache:dl1 dl1:256:32:1:l -cache:dl2 dl2:131072:32:1:l -cache:il1 il1:256:32:1:l -cache:il2 dl2 multi_quicksort_seq941296307
	sim-cache -cache:dl1 dl1:256:32:1:l -cache:dl2 dl2:65536:32:1:l -cache:il1 il1:256:32:1:l -cache:il2 dl2 multi_quicksort_seq941296307
	sim-cache -cache:dl1 dl1:1:32:256:l -cache:dl2 dl2:1:32:131072:l -cache:il1 il1:1:32:256:l -cache:il2 dl2 multi_quicksort_seq941296307
	sim-cache -cache:dl1 dl1:1:32:256:l -cache:dl2 dl2:1:32:65536:l -cache:il1 il1:1:32:256:l -cache:il2 dl2 multi_quicksort_seq941296307
	sim-bpred -bpred bimod -bpred:bimod 512 multi_quicksort_seq941296307
	sim-bpred -bpred bimod -bpred:bimod 1024 multi_quicksort_seq941296307
	sim-bpred -bpred bimod -bpred:bimod 2048 multi_quicksort_seq941296307
	sim-bpred -bpred 2lev -bpred:2lev 1 512 10 1 multi_quicksort_seq941296307
	sim-bpred -bpred 2lev -bpred:2lev 1 1024 10 1 multi_quicksort_seq941296307
	sim-bpred -bpred 2lev -bpred:2lev 1 2048 10 1 multi_quicksort_seq941296307
	sim-bpred -bpred 2lev -bpred:2lev 1 4096 10 1 multi_quicksort_seq941296307
	sslittle-na-sstrix-gcc -Wall -O3 -funroll-loops -finline-functions  -DRANDOM_SIZE=16384 -DOFFSET=2 -DSORT=multi_quicksort_seq sorts/multi_quicksort_seq2052086349.c simpleMain.c -o multi_quicksort_seq941296307
	sim-cache -cache:dl1 dl1:256:32:1:l -cache:dl2 dl2:131072:32:1:l -cache:il1 il1:256:32:1:l -cache:il2 dl2 multi_quicksort_seq941296307
	sim-cache -cache:dl1 dl1:256:32:1:l -cache:dl2 dl2:65536:32:1:l -cache:il1 il1:256:32:1:l -cache:il2 dl2 multi_quicksort_seq941296307
	sim-cache -cache:dl1 dl1:1:32:256:l -cache:dl2 dl2:1:32:131072:l -cache:il1 il1:1:32:256:l -cache:il2 dl2 multi_quicksort_seq941296307
	sim-cache -cache:dl1 dl1:1:32:256:l -cache:dl2 dl2:1:32:65536:l -cache:il1 il1:1:32:256:l -cache:il2 dl2 multi_quicksort_seq941296307
	sim-bpred -bpred bimod -bpred:bimod 512 multi_quicksort_seq941296307
	sim-bpred -bpred bimod -bpred:bimod 1024 multi_quicksort_seq941296307
	sim-bpred -bpred bimod -bpred:bimod 2048 multi_quicksort_seq941296307
	sim-bpred -bpred 2lev -bpred:2lev 1 512 10 1 multi_quicksort_seq941296307
	sim-bpred -bpred 2lev -bpred:2lev 1 1024 10 1 multi_quicksort_seq941296307
	sim-bpred -bpred 2lev -bpred:2lev 1 2048 10 1 multi_quicksort_seq941296307
	sim-bpred -bpred 2lev -bpred:2lev 1 4096 10 1 multi_quicksort_seq941296307
	sslittle-na-sstrix-gcc -Wall -O3 -funroll-loops -finline-functions  -DRANDOM_SIZE=32768 -DOFFSET=2 -DSORT=multi_quicksort_seq sorts/multi_quicksort_seq2052086349.c simpleMain.c -o multi_quicksort_seq941296307
	sim-cache -cache:dl1 dl1:256:32:1:l -cache:dl2 dl2:131072:32:1:l -cache:il1 il1:256:32:1:l -cache:il2 dl2 multi_quicksort_seq941296307
	sim-cache -cache:dl1 dl1:256:32:1:l -cache:dl2 dl2:65536:32:1:l -cache:il1 il1:256:32:1:l -cache:il2 dl2 multi_quicksort_seq941296307
	sim-cache -cache:dl1 dl1:1:32:256:l -cache:dl2 dl2:1:32:131072:l -cache:il1 il1:1:32:256:l -cache:il2 dl2 multi_quicksort_seq941296307
	sim-cache -cache:dl1 dl1:1:32:256:l -cache:dl2 dl2:1:32:65536:l -cache:il1 il1:1:32:256:l -cache:il2 dl2 multi_quicksort_seq941296307
	sim-bpred -bpred bimod -bpred:bimod 512 multi_quicksort_seq941296307
	sim-bpred -bpred bimod -bpred:bimod 1024 multi_quicksort_seq941296307
	sim-bpred -bpred bimod -bpred:bimod 2048 multi_quicksort_seq941296307
	sim-bpred -bpred 2lev -bpred:2lev 1 512 10 1 multi_quicksort_seq941296307
	sim-bpred -bpred 2lev -bpred:2lev 1 1024 10 1 multi_quicksort_seq941296307
	sim-bpred -bpred 2lev -bpred:2lev 1 2048 10 1 multi_quicksort_seq941296307
	sim-bpred -bpred 2lev -bpred:2lev 1 4096 10 1 multi_quicksort_seq941296307
	sslittle-na-sstrix-gcc -Wall -O3 -funroll-loops -finline-functions  -DRANDOM_SIZE=65536 -DOFFSET=2 -DSORT=multi_quicksort_seq sorts/multi_quicksort_seq2052086349.c simpleMain.c -o multi_quicksort_seq941296307
	sim-cache -cache:dl1 dl1:256:32:1:l -cache:dl2 dl2:131072:32:1:l -cache:il1 il1:256:32:1:l -cache:il2 dl2 multi_quicksort_seq941296307
	sim-cache -cache:dl1 dl1:256:32:1:l -cache:dl2 dl2:65536:32:1:l -cache:il1 il1:256:32:1:l -cache:il2 dl2 multi_quicksort_seq941296307
	sim-cache -cache:dl1 dl1:1:32:256:l -cache:dl2 dl2:1:32:131072:l -cache:il1 il1:1:32:256:l -cache:il2 dl2 multi_quicksort_seq941296307
	sim-cache -cache:dl1 dl1:1:32:256:l -cache:dl2 dl2:1:32:65536:l -cache:il1 il1:1:32:256:l -cache:il2 dl2 multi_quicksort_seq941296307
	sim-bpred -bpred bimod -bpred:bimod 512 multi_quicksort_seq941296307
	sim-bpred -bpred bimod -bpred:bimod 1024 multi_quicksort_seq941296307
	sim-bpred -bpred bimod -bpred:bimod 2048 multi_quicksort_seq941296307
	sim-bpred -bpred 2lev -bpred:2lev 1 512 10 1 multi_quicksort_seq941296307
	sim-bpred -bpred 2lev -bpred:2lev 1 1024 10 1 multi_quicksort_seq941296307
	sim-bpred -bpred 2lev -bpred:2lev 1 2048 10 1 multi_quicksort_seq941296307
	sim-bpred -bpred 2lev -bpred:2lev 1 4096 10 1 multi_quicksort_seq941296307
	sslittle-na-sstrix-gcc -Wall -O3 -funroll-loops -finline-functions  -DRANDOM_SIZE=131072 -DOFFSET=2 -DSORT=multi_quicksort_seq sorts/multi_quicksort_seq2052086349.c simpleMain.c -o multi_quicksort_seq941296307
	sim-cache -cache:dl1 dl1:256:32:1:l -cache:dl2 dl2:131072:32:1:l -cache:il1 il1:256:32:1:l -cache:il2 dl2 multi_quicksort_seq941296307
	sim-cache -cache:dl1 dl1:256:32:1:l -cache:dl2 dl2:65536:32:1:l -cache:il1 il1:256:32:1:l -cache:il2 dl2 multi_quicksort_seq941296307
	sim-cache -cache:dl1 dl1:1:32:256:l -cache:dl2 dl2:1:32:131072:l -cache:il1 il1:1:32:256:l -cache:il2 dl2 multi_quicksort_seq941296307
	sim-cache -cache:dl1 dl1:1:32:256:l -cache:dl2 dl2:1:32:65536:l -cache:il1 il1:1:32:256:l -cache:il2 dl2 multi_quicksort_seq941296307
	sim-bpred -bpred bimod -bpred:bimod 512 multi_quicksort_seq941296307
	sim-bpred -bpred bimod -bpred:bimod 1024 multi_quicksort_seq941296307
	sim-bpred -bpred bimod -bpred:bimod 2048 multi_quicksort_seq941296307
	sim-bpred -bpred 2lev -bpred:2lev 1 512 10 1 multi_quicksort_seq941296307
	sim-bpred -bpred 2lev -bpred:2lev 1 1024 10 1 multi_quicksort_seq941296307
	sim-bpred -bpred 2lev -bpred:2lev 1 2048 10 1 multi_quicksort_seq941296307
	sim-bpred -bpred 2lev -bpred:2lev 1 4096 10 1 multi_quicksort_seq941296307
	sslittle-na-sstrix-gcc -Wall -O3 -funroll-loops -finline-functions  -DRANDOM_SIZE=262144 -DOFFSET=2 -DSORT=multi_quicksort_seq sorts/multi_quicksort_seq2052086349.c simpleMain.c -o multi_quicksort_seq941296307
	sim-cache -cache:dl1 dl1:256:32:1:l -cache:dl2 dl2:131072:32:1:l -cache:il1 il1:256:32:1:l -cache:il2 dl2 multi_quicksort_seq941296307
	sim-cache -cache:dl1 dl1:256:32:1:l -cache:dl2 dl2:65536:32:1:l -cache:il1 il1:256:32:1:l -cache:il2 dl2 multi_quicksort_seq941296307
	sim-cache -cache:dl1 dl1:1:32:256:l -cache:dl2 dl2:1:32:131072:l -cache:il1 il1:1:32:256:l -cache:il2 dl2 multi_quicksort_seq941296307
	sim-cache -cache:dl1 dl1:1:32:256:l -cache:dl2 dl2:1:32:65536:l -cache:il1 il1:1:32:256:l -cache:il2 dl2 multi_quicksort_seq941296307
	sim-bpred -bpred bimod -bpred:bimod 512 multi_quicksort_seq941296307
	sim-bpred -bpred bimod -bpred:bimod 1024 multi_quicksort_seq941296307
	sim-bpred -bpred bimod -bpred:bimod 2048 multi_quicksort_seq941296307
	sim-bpred -bpred 2lev -bpred:2lev 1 512 10 1 multi_quicksort_seq941296307
	sim-bpred -bpred 2lev -bpred:2lev 1 1024 10 1 multi_quicksort_seq941296307
	sim-bpred -bpred 2lev -bpred:2lev 1 2048 10 1 multi_quicksort_seq941296307
	sim-bpred -bpred 2lev -bpred:2lev 1 4096 10 1 multi_quicksort_seq941296307
	sslittle-na-sstrix-gcc -Wall -O3 -funroll-loops -finline-functions  -DRANDOM_SIZE=524288 -DOFFSET=2 -DSORT=multi_quicksort_seq sorts/multi_quicksort_seq2052086349.c simpleMain.c -o multi_quicksort_seq941296307
	sim-cache -cache:dl1 dl1:256:32:1:l -cache:dl2 dl2:131072:32:1:l -cache:il1 il1:256:32:1:l -cache:il2 dl2 multi_quicksort_seq941296307
	sim-cache -cache:dl1 dl1:256:32:1:l -cache:dl2 dl2:65536:32:1:l -cache:il1 il1:256:32:1:l -cache:il2 dl2 multi_quicksort_seq941296307
	sim-cache -cache:dl1 dl1:1:32:256:l -cache:dl2 dl2:1:32:131072:l -cache:il1 il1:1:32:256:l -cache:il2 dl2 multi_quicksort_seq941296307
	sim-cache -cache:dl1 dl1:1:32:256:l -cache:dl2 dl2:1:32:65536:l -cache:il1 il1:1:32:256:l -cache:il2 dl2 multi_quicksort_seq941296307
	sim-bpred -bpred bimod -bpred:bimod 512 multi_quicksort_seq941296307
	sim-bpred -bpred bimod -bpred:bimod 1024 multi_quicksort_seq941296307
	sim-bpred -bpred bimod -bpred:bimod 2048 multi_quicksort_seq941296307
	sim-bpred -bpred 2lev -bpred:2lev 1 512 10 1 multi_quicksort_seq941296307
	sim-bpred -bpred 2lev -bpred:2lev 1 1024 10 1 multi_quicksort_seq941296307
	sim-bpred -bpred 2lev -bpred:2lev 1 2048 10 1 multi_quicksort_seq941296307
	sim-bpred -bpred 2lev -bpred:2lev 1 4096 10 1 multi_quicksort_seq941296307
	sslittle-na-sstrix-gcc -Wall -O3 -funroll-loops -finline-functions  -DRANDOM_SIZE=1048576 -DOFFSET=2 -DSORT=multi_quicksort_seq sorts/multi_quicksort_seq2052086349.c simpleMain.c -o multi_quicksort_seq941296307
	sim-cache -cache:dl1 dl1:256:32:1:l -cache:dl2 dl2:131072:32:1:l -cache:il1 il1:256:32:1:l -cache:il2 dl2 multi_quicksort_seq941296307
	sim-cache -cache:dl1 dl1:256:32:1:l -cache:dl2 dl2:65536:32:1:l -cache:il1 il1:256:32:1:l -cache:il2 dl2 multi_quicksort_seq941296307
	sim-cache -cache:dl1 dl1:1:32:256:l -cache:dl2 dl2:1:32:131072:l -cache:il1 il1:1:32:256:l -cache:il2 dl2 multi_quicksort_seq941296307
	sim-cache -cache:dl1 dl1:1:32:256:l -cache:dl2 dl2:1:32:65536:l -cache:il1 il1:1:32:256:l -cache:il2 dl2 multi_quicksort_seq941296307
	sim-bpred -bpred bimod -bpred:bimod 512 multi_quicksort_seq941296307
	sim-bpred -bpred bimod -bpred:bimod 1024 multi_quicksort_seq941296307
	sim-bpred -bpred bimod -bpred:bimod 2048 multi_quicksort_seq941296307
	sim-bpred -bpred 2lev -bpred:2lev 1 512 10 1 multi_quicksort_seq941296307
	sim-bpred -bpred 2lev -bpred:2lev 1 1024 10 1 multi_quicksort_seq941296307
	sim-bpred -bpred 2lev -bpred:2lev 1 2048 10 1 multi_quicksort_seq941296307
	sim-bpred -bpred 2lev -bpred:2lev 1 4096 10 1 multi_quicksort_seq941296307
	sslittle-na-sstrix-gcc -Wall -O3 -funroll-loops -finline-functions  -DRANDOM_SIZE=2097152 -DOFFSET=2 -DSORT=multi_quicksort_seq sorts/multi_quicksort_seq2052086349.c simpleMain.c -o multi_quicksort_seq941296307
	sim-cache -cache:dl1 dl1:256:32:1:l -cache:dl2 dl2:131072:32:1:l -cache:il1 il1:256:32:1:l -cache:il2 dl2 multi_quicksort_seq941296307
	sim-cache -cache:dl1 dl1:256:32:1:l -cache:dl2 dl2:65536:32:1:l -cache:il1 il1:256:32:1:l -cache:il2 dl2 multi_quicksort_seq941296307
	sim-cache -cache:dl1 dl1:1:32:256:l -cache:dl2 dl2:1:32:131072:l -cache:il1 il1:1:32:256:l -cache:il2 dl2 multi_quicksort_seq941296307
	sim-cache -cache:dl1 dl1:1:32:256:l -cache:dl2 dl2:1:32:65536:l -cache:il1 il1:1:32:256:l -cache:il2 dl2 multi_quicksort_seq941296307
	sim-bpred -bpred bimod -bpred:bimod 512 multi_quicksort_seq941296307
	sim-bpred -bpred bimod -bpred:bimod 1024 multi_quicksort_seq941296307
	sim-bpred -bpred bimod -bpred:bimod 2048 multi_quicksort_seq941296307
	sim-bpred -bpred 2lev -bpred:2lev 1 512 10 1 multi_quicksort_seq941296307
	sim-bpred -bpred 2lev -bpred:2lev 1 1024 10 1 multi_quicksort_seq941296307
	sim-bpred -bpred 2lev -bpred:2lev 1 2048 10 1 multi_quicksort_seq941296307
	sim-bpred -bpred 2lev -bpred:2lev 1 4096 10 1 multi_quicksort_seq941296307
	sslittle-na-sstrix-gcc -Wall -O3 -funroll-loops -finline-functions  -DRANDOM_SIZE=4194304 -DOFFSET=2 -DSORT=multi_quicksort_seq sorts/multi_quicksort_seq2052086349.c simpleMain.c -o multi_quicksort_seq941296307
	sim-cache -cache:dl1 dl1:256:32:1:l -cache:dl2 dl2:131072:32:1:l -cache:il1 il1:256:32:1:l -cache:il2 dl2 multi_quicksort_seq941296307
	sim-cache -cache:dl1 dl1:256:32:1:l -cache:dl2 dl2:65536:32:1:l -cache:il1 il1:256:32:1:l -cache:il2 dl2 multi_quicksort_seq941296307
	sim-cache -cache:dl1 dl1:1:32:256:l -cache:dl2 dl2:1:32:131072:l -cache:il1 il1:1:32:256:l -cache:il2 dl2 multi_quicksort_seq941296307
	sim-cache -cache:dl1 dl1:1:32:256:l -cache:dl2 dl2:1:32:65536:l -cache:il1 il1:1:32:256:l -cache:il2 dl2 multi_quicksort_seq941296307
	sim-bpred -bpred bimod -bpred:bimod 512 multi_quicksort_seq941296307
	sim-bpred -bpred bimod -bpred:bimod 1024 multi_quicksort_seq941296307
	sim-bpred -bpred bimod -bpred:bimod 2048 multi_quicksort_seq941296307
	sim-bpred -bpred 2lev -bpred:2lev 1 512 10 1 multi_quicksort_seq941296307
	sim-bpred -bpred 2lev -bpred:2lev 1 1024 10 1 multi_quicksort_seq941296307
	sim-bpred -bpred 2lev -bpred:2lev 1 2048 10 1 multi_quicksort_seq941296307
	sim-bpred -bpred 2lev -bpred:2lev 1 4096 10 1 multi_quicksort_seq941296307
