Wed Jul 13 05:55:06 2005
Run as: "./do_simple -c random.org5 -o 5 multi_quicksort_seq"
-------------------------------------------------------------------------------------------------
sim-cache                                     4096 |         4096 |         4096 |         4096 |         8192 |         8192 |         8192 |         8192 |        16384 |        16384 |        16384 |        16384 |        32768 |        32768 |        32768 |        32768 |        65536 |        65536 |        65536 |        65536 |       131072 |       131072 |       131072 |       131072 |       262144 |       262144 |       262144 |       262144 |       524288 |       524288 |       524288 |       524288 |      1048576 |      1048576 |      1048576 |      1048576 |      2097152 |      2097152 |      2097152 |      2097152 |      4194304 |      4194304 |      4194304 |      4194304 |
-cache:dl1 dl1:256:32:1:l -cache:dl2 dl2:131072:32:1:l -cache:il1 il1:256:32:1:l -cache:il2 dl2
-cache:dl1 dl1:256:32:1:l -cache:dl2 dl2:65536:32:1:l -cache:il1 il1:256:32:1:l -cache:il2 dl2
-cache:dl1 dl1:1:32:256:l -cache:dl2 dl2:1:32:131072:l -cache:il1 il1:1:32:256:l -cache:il2 dl2
-cache:dl1 dl1:1:32:256:l -cache:dl2 dl2:1:32:65536:l -cache:il1 il1:1:32:256:l -cache:il2 dl2
-------------------------------------------------------------------------------------------------
sim_num_insn                                471656 |       471656 |       471656 |       471656 |      1004471 |      1004471 |      1004471 |      1004471 |      2152230 |      2152230 |      2152230 |      2152230 |      4651924 |      4651924 |      4651924 |      4651924 |      9794612 |      9794612 |      9794612 |      9794612 |     20806779 |     20806779 |     20806779 |     20806779 |     43783689 |     43783689 |     43783689 |     43783689 |     91484736 |     91484736 |     91484736 |     91484736 |    194627576 |    194627576 |    194627576 |    194627576 |    575767373 |    575767373 |    575767373 |    575767373 |   1408319206 |   1408319206 |   1408319206 |   1408319206 |
sim_num_refs                                123764 |       123764 |       123764 |       123764 |       260148 |       260148 |       260148 |       260148 |       552480 |       552480 |       552480 |       552480 |      1176225 |      1176225 |      1176225 |      1176225 |      2475258 |      2475258 |      2475258 |      2475258 |      5225364 |      5225364 |      5225364 |      5225364 |     10971202 |     10971202 |     10971202 |     10971202 |     22928642 |     22928642 |     22928642 |     22928642 |     48358391 |     48358391 |     48358391 |     48358391 |    134227466 |    134227466 |    134227466 |    134227466 |    305878491 |    305878491 |    305878491 |    305878491 |
sim_elapsed_time                                 1 |            1 |            8 |            4 |            1 |            1 |           11 |            5 |            1 |            1 |           15 |            9 |            1 |            2 |           27 |           14 |            3 |            3 |           55 |           25 |            5 |            6 |           91 |           45 |           12 |           12 |          168 |           79 |           25 |           25 |          289 |          112 |           53 |           53 |          402 |          142 |          158 |          157 |          514 |          253 |          376 |          377 |          745 |          487 |
sim_inst_rate                          471656.0000 |  471656.0000 |   58957.0000 |  117914.0000 | 1004471.0000 | 1004471.0000 |   91315.5455 |  200894.2000 | 2152230.0000 | 2152230.0000 |  143482.0000 |  239136.6667 | 4651924.0000 | 2325962.0000 |  172293.4815 |  332280.2857 | 3264870.6667 | 3264870.6667 |  178083.8545 |  391784.4800 | 4161355.8000 | 3467796.5000 |  228645.9231 |  462372.8667 | 3648640.7500 | 3648640.7500 |  260617.1964 |  554223.9114 | 3659389.4400 | 3659389.4400 |  316556.1799 |  816828.0000 | 3672218.4151 | 3672218.4151 |  484148.1990 | 1370616.7324 | 3644097.2975 | 3667308.1083 | 1120169.9864 | 2275760.3676 | 3745529.8032 | 3735594.7109 | 1890361.3503 | 2891825.8850 |
il1.accesses                                471656 |       471656 |       471656 |       471656 |      1004471 |      1004471 |      1004471 |      1004471 |      2152230 |      2152230 |      2152230 |      2152230 |      4651924 |      4651924 |      4651924 |      4651924 |      9794612 |      9794612 |      9794612 |      9794612 |     20806779 |     20806779 |     20806779 |     20806779 |     43783689 |     43783689 |     43783689 |     43783689 |     91484736 |     91484736 |     91484736 |     91484736 |    194627576 |    194627576 |    194627576 |    194627576 |    575767373 |    575767373 |    575767373 |    575767373 |   1408319206 |   1408319206 |   1408319206 |   1408319206 |
il1.hits                                    471187 |       471187 |       471218 |       471218 |      1004004 |      1004004 |      1004035 |      1004035 |      2151755 |      2151755 |      2151794 |      2151794 |      4651454 |      4651454 |      4651483 |      4651483 |      9794146 |      9794146 |      9794175 |      9794175 |     20806310 |     20806310 |     20806339 |     20806339 |     43783224 |     43783224 |     43783253 |     43783253 |     91484267 |     91484267 |     91484296 |     91484296 |    194627111 |    194627111 |    194627140 |    194627140 |    575766631 |    575766631 |    575766676 |    575766676 |   1408318470 |   1408318470 |   1408318515 |   1408318515 |
il1.misses                                     469 |          469 |          438 |          438 |          467 |          467 |          436 |          436 |          475 |          475 |          436 |          436 |          470 |          470 |          441 |          441 |          466 |          466 |          437 |          437 |          469 |          469 |          440 |          440 |          465 |          465 |          436 |          436 |          469 |          469 |          440 |          440 |          465 |          465 |          436 |          436 |          742 |          742 |          697 |          697 |          736 |          736 |          691 |          691 |
il1.replacements                               226 |          226 |          182 |          182 |          223 |          223 |          180 |          180 |          233 |          233 |          180 |          180 |          225 |          225 |          185 |          185 |          221 |          221 |          181 |          181 |          224 |          224 |          184 |          184 |          220 |          220 |          180 |          180 |          224 |          224 |          184 |          184 |          220 |          220 |          180 |          180 |          487 |          487 |          441 |          441 |          481 |          481 |          435 |          435 |
il1.writebacks                                   0 |            0 |            0 |            0 |            0 |            0 |            0 |            0 |            0 |            0 |            0 |            0 |            0 |            0 |            0 |            0 |            0 |            0 |            0 |            0 |            0 |            0 |            0 |            0 |            0 |            0 |            0 |            0 |            0 |            0 |            0 |            0 |            0 |            0 |            0 |            0 |            0 |            0 |            0 |            0 |            0 |            0 |            0 |            0 |
il1.invalidations                                0 |            0 |            0 |            0 |            0 |            0 |            0 |            0 |            0 |            0 |            0 |            0 |            0 |            0 |            0 |            0 |            0 |            0 |            0 |            0 |            0 |            0 |            0 |            0 |            0 |            0 |            0 |            0 |            0 |            0 |            0 |            0 |            0 |            0 |            0 |            0 |            0 |            0 |            0 |            0 |            0 |            0 |            0 |            0 |
il1.miss_rate                               0.0010 |       0.0010 |       0.0009 |       0.0009 |       0.0005 |       0.0005 |       0.0004 |       0.0004 |       0.0002 |       0.0002 |       0.0002 |       0.0002 |       0.0001 |       0.0001 |       0.0001 |       0.0001 |       0.0000 |       0.0000 |       0.0000 |       0.0000 |       0.0000 |       0.0000 |       0.0000 |       0.0000 |       0.0000 |       0.0000 |       0.0000 |       0.0000 |       0.0000 |       0.0000 |       0.0000 |       0.0000 |       0.0000 |       0.0000 |       0.0000 |       0.0000 |       0.0000 |       0.0000 |       0.0000 |       0.0000 |       0.0000 |       0.0000 |       0.0000 |       0.0000 |
il1.repl_rate                               0.0005 |       0.0005 |       0.0004 |       0.0004 |       0.0002 |       0.0002 |       0.0002 |       0.0002 |       0.0001 |       0.0001 |       0.0001 |       0.0001 |       0.0000 |       0.0000 |       0.0000 |       0.0000 |       0.0000 |       0.0000 |       0.0000 |       0.0000 |       0.0000 |       0.0000 |       0.0000 |       0.0000 |       0.0000 |       0.0000 |       0.0000 |       0.0000 |       0.0000 |       0.0000 |       0.0000 |       0.0000 |       0.0000 |       0.0000 |       0.0000 |       0.0000 |       0.0000 |       0.0000 |       0.0000 |       0.0000 |       0.0000 |       0.0000 |       0.0000 |       0.0000 |
il1.wb_rate                                 0.0000 |       0.0000 |       0.0000 |       0.0000 |       0.0000 |       0.0000 |       0.0000 |       0.0000 |       0.0000 |       0.0000 |       0.0000 |       0.0000 |       0.0000 |       0.0000 |       0.0000 |       0.0000 |       0.0000 |       0.0000 |       0.0000 |       0.0000 |       0.0000 |       0.0000 |       0.0000 |       0.0000 |       0.0000 |       0.0000 |       0.0000 |       0.0000 |       0.0000 |       0.0000 |       0.0000 |       0.0000 |       0.0000 |       0.0000 |       0.0000 |       0.0000 |       0.0000 |       0.0000 |       0.0000 |       0.0000 |       0.0000 |       0.0000 |       0.0000 |       0.0000 |
il1.inv_rate                                0.0000 |       0.0000 |       0.0000 |       0.0000 |       0.0000 |       0.0000 |       0.0000 |       0.0000 |       0.0000 |       0.0000 |       0.0000 |       0.0000 |       0.0000 |       0.0000 |       0.0000 |       0.0000 |       0.0000 |       0.0000 |       0.0000 |       0.0000 |       0.0000 |       0.0000 |       0.0000 |       0.0000 |       0.0000 |       0.0000 |       0.0000 |       0.0000 |       0.0000 |       0.0000 |       0.0000 |       0.0000 |       0.0000 |       0.0000 |       0.0000 |       0.0000 |       0.0000 |       0.0000 |       0.0000 |       0.0000 |       0.0000 |       0.0000 |       0.0000 |       0.0000 |
dl1.accesses                                140230 |       140230 |       140230 |       140230 |       292998 |       292998 |       292998 |       292998 |       618098 |       618098 |       618098 |       618098 |      1307379 |      1307379 |      1307379 |      1307379 |      2737484 |      2737484 |      2737484 |      2737484 |      5749734 |      5749734 |      5749734 |      5749734 |     12019860 |     12019860 |     12019860 |     12019860 |     25025876 |     25025876 |     25025876 |     25025876 |     52552777 |     52552777 |     52552777 |     52552777 |    142616157 |    142616157 |    142616157 |    142616157 |    322655790 |    322655790 |    322655790 |    322655790 |
dl1.hits                                    137718 |       137718 |       137646 |       137646 |       287995 |       287995 |       288067 |       288067 |       605267 |       605267 |       605327 |       605327 |      1277909 |      1277909 |      1277848 |      1277848 |      2670555 |      2670555 |      2670917 |      2670917 |      5597311 |      5597311 |      5597961 |      5597961 |     11679776 |     11679776 |     11682121 |     11682121 |     24290806 |     24290806 |     24297619 |     24297619 |     50865982 |     50865982 |     50884180 |     50884180 |    133997250 |    133997250 |    138923294 |    138923294 |    309438079 |    309438079 |    315080841 |    315080841 |
dl1.misses                                    2512 |         2512 |         2584 |         2584 |         5003 |         5003 |         4931 |         4931 |        12831 |        12831 |        12771 |        12771 |        29470 |        29470 |        29531 |        29531 |        66929 |        66929 |        66567 |        66567 |       152423 |       152423 |       151773 |       151773 |       340084 |       340084 |       337739 |       337739 |       735070 |       735070 |       728257 |       728257 |      1686795 |      1686795 |      1668597 |      1668597 |      8618907 |      8618907 |      3692863 |      3692863 |     13217711 |     13217711 |      7574949 |      7574949 |
dl1.replacements                              2256 |         2256 |         2328 |         2328 |         4747 |         4747 |         4675 |         4675 |        12575 |        12575 |        12515 |        12515 |        29214 |        29214 |        29275 |        29275 |        66673 |        66673 |        66311 |        66311 |       152167 |       152167 |       151517 |       151517 |       339828 |       339828 |       337483 |       337483 |       734814 |       734814 |       728001 |       728001 |      1686539 |      1686539 |      1668341 |      1668341 |      8618651 |      8618651 |      3692607 |      3692607 |     13217455 |     13217455 |      7574693 |      7574693 |
dl1.writebacks                                2040 |         2040 |         2108 |         2108 |         4548 |         4548 |         4532 |         4532 |        11601 |        11601 |        11675 |        11675 |        26383 |        26383 |        26647 |        26647 |        61376 |        61376 |        61612 |        61612 |       141467 |       141467 |       142246 |       142246 |       314642 |       314642 |       315530 |       315530 |       689519 |       689519 |       690065 |       690065 |      1559631 |      1559631 |      1558731 |      1558731 |      5408436 |      5408436 |      2979833 |      2979833 |     10297581 |     10297581 |      6111595 |      6111595 |
dl1.invalidations                                0 |            0 |            0 |            0 |            0 |            0 |            0 |            0 |            0 |            0 |            0 |            0 |            0 |            0 |            0 |            0 |            0 |            0 |            0 |            0 |            0 |            0 |            0 |            0 |            0 |            0 |            0 |            0 |            0 |            0 |            0 |            0 |            0 |            0 |            0 |            0 |            0 |            0 |            0 |            0 |            0 |            0 |            0 |            0 |
dl1.miss_rate                               0.0179 |       0.0179 |       0.0184 |       0.0184 |       0.0171 |       0.0171 |       0.0168 |       0.0168 |       0.0208 |       0.0208 |       0.0207 |       0.0207 |       0.0225 |       0.0225 |       0.0226 |       0.0226 |       0.0244 |       0.0244 |       0.0243 |       0.0243 |       0.0265 |       0.0265 |       0.0264 |       0.0264 |       0.0283 |       0.0283 |       0.0281 |       0.0281 |       0.0294 |       0.0294 |       0.0291 |       0.0291 |       0.0321 |       0.0321 |       0.0318 |       0.0318 |       0.0604 |       0.0604 |       0.0259 |       0.0259 |       0.0410 |       0.0410 |       0.0235 |       0.0235 |
dl1.repl_rate                               0.0161 |       0.0161 |       0.0166 |       0.0166 |       0.0162 |       0.0162 |       0.0160 |       0.0160 |       0.0203 |       0.0203 |       0.0202 |       0.0202 |       0.0223 |       0.0223 |       0.0224 |       0.0224 |       0.0244 |       0.0244 |       0.0242 |       0.0242 |       0.0265 |       0.0265 |       0.0264 |       0.0264 |       0.0283 |       0.0283 |       0.0281 |       0.0281 |       0.0294 |       0.0294 |       0.0291 |       0.0291 |       0.0321 |       0.0321 |       0.0317 |       0.0317 |       0.0604 |       0.0604 |       0.0259 |       0.0259 |       0.0410 |       0.0410 |       0.0235 |       0.0235 |
dl1.wb_rate                                 0.0145 |       0.0145 |       0.0150 |       0.0150 |       0.0155 |       0.0155 |       0.0155 |       0.0155 |       0.0188 |       0.0188 |       0.0189 |       0.0189 |       0.0202 |       0.0202 |       0.0204 |       0.0204 |       0.0224 |       0.0224 |       0.0225 |       0.0225 |       0.0246 |       0.0246 |       0.0247 |       0.0247 |       0.0262 |       0.0262 |       0.0263 |       0.0263 |       0.0276 |       0.0276 |       0.0276 |       0.0276 |       0.0297 |       0.0297 |       0.0297 |       0.0297 |       0.0379 |       0.0379 |       0.0209 |       0.0209 |       0.0319 |       0.0319 |       0.0189 |       0.0189 |
dl1.inv_rate                                0.0000 |       0.0000 |       0.0000 |       0.0000 |       0.0000 |       0.0000 |       0.0000 |       0.0000 |       0.0000 |       0.0000 |       0.0000 |       0.0000 |       0.0000 |       0.0000 |       0.0000 |       0.0000 |       0.0000 |       0.0000 |       0.0000 |       0.0000 |       0.0000 |       0.0000 |       0.0000 |       0.0000 |       0.0000 |       0.0000 |       0.0000 |       0.0000 |       0.0000 |       0.0000 |       0.0000 |       0.0000 |       0.0000 |       0.0000 |       0.0000 |       0.0000 |       0.0000 |       0.0000 |       0.0000 |       0.0000 |       0.0000 |       0.0000 |       0.0000 |       0.0000 |
dl2.accesses                                  5021 |         5021 |         5130 |         5130 |        10018 |        10018 |         9899 |         9899 |        24907 |        24907 |        24882 |        24882 |        56323 |        56323 |        56619 |        56619 |       128771 |       128771 |       128616 |       128616 |       294359 |       294359 |       294459 |       294459 |       655191 |       655191 |       653705 |       653705 |      1425058 |      1425058 |      1418762 |      1418762 |      3246891 |      3246891 |      3227764 |      3227764 |     14028085 |     14028085 |      6673393 |      6673393 |     23516028 |     23516028 |     13687235 |     13687235 |
dl2.hits                                      3594 |         3594 |         3739 |         3739 |         8080 |         8080 |         7998 |         7998 |        21959 |        21959 |        21975 |        21975 |        51324 |        51324 |        51657 |        51657 |       119679 |       119679 |       119561 |       119561 |       277071 |       277071 |       277209 |       277209 |       621523 |       621523 |       620075 |       620075 |      1358618 |      1358021 |      1352360 |      1300315 |      3114267 |      2891414 |      3029962 |      2834648 |     12672748 |     12637967 |      5370377 |      5305128 |     20810331 |     20697055 |     11026885 |     10880101 |
dl2.misses                                    1427 |         1427 |         1391 |         1391 |         1938 |         1938 |         1901 |         1901 |         2948 |         2948 |         2907 |         2907 |         4999 |         4999 |         4962 |         4962 |         9092 |         9092 |         9055 |         9055 |        17288 |        17288 |        17250 |        17250 |        33668 |        33668 |        33630 |        33630 |        66440 |        67037 |        66402 |       118447 |       132624 |       355477 |       197802 |       393116 |      1355337 |      1390118 |      1303016 |      1368265 |      2705697 |      2818973 |      2660350 |      2807134 |
dl2.replacements                               286 |          286 |            0 |            0 |          285 |          285 |            0 |            0 |          292 |          292 |            0 |            0 |          290 |          290 |            0 |            0 |          286 |          286 |            0 |            0 |          290 |          290 |            0 |            0 |          286 |          286 |            0 |            0 |          290 |         1501 |            0 |        52911 |         1552 |       289941 |        66730 |       327580 |      1224265 |      1324582 |      1171944 |      1302729 |      2574625 |      2753437 |      2529278 |      2741598 |
dl2.writebacks                                 154 |          154 |            0 |            0 |          153 |          153 |            0 |            0 |          153 |          153 |            0 |            0 |          152 |          152 |            0 |            0 |          152 |          152 |            0 |            0 |          152 |          152 |            0 |            0 |          152 |          152 |            0 |            0 |          152 |         1234 |            0 |        52568 |         1272 |       285568 |        66501 |       322328 |       738402 |       809581 |       720080 |       813471 |      1563081 |      1703802 |      1551725 |      1705852 |
dl2.invalidations                                0 |            0 |            0 |            0 |            0 |            0 |            0 |            0 |            0 |            0 |            0 |            0 |            0 |            0 |            0 |            0 |            0 |            0 |            0 |            0 |            0 |            0 |            0 |            0 |            0 |            0 |            0 |            0 |            0 |            0 |            0 |            0 |            0 |            0 |            0 |            0 |            0 |            0 |            0 |            0 |            0 |            0 |            0 |            0 |
dl2.miss_rate                               0.2842 |       0.2842 |       0.2712 |       0.2712 |       0.1935 |       0.1935 |       0.1920 |       0.1920 |       0.1184 |       0.1184 |       0.1168 |       0.1168 |       0.0888 |       0.0888 |       0.0876 |       0.0876 |       0.0706 |       0.0706 |       0.0704 |       0.0704 |       0.0587 |       0.0587 |       0.0586 |       0.0586 |       0.0514 |       0.0514 |       0.0514 |       0.0514 |       0.0466 |       0.0470 |       0.0468 |       0.0835 |       0.0408 |       0.1095 |       0.0613 |       0.1218 |       0.0966 |       0.0991 |       0.1953 |       0.2050 |       0.1151 |       0.1199 |       0.1944 |       0.2051 |
dl2.repl_rate                               0.0570 |       0.0570 |       0.0000 |       0.0000 |       0.0284 |       0.0284 |       0.0000 |       0.0000 |       0.0117 |       0.0117 |       0.0000 |       0.0000 |       0.0051 |       0.0051 |       0.0000 |       0.0000 |       0.0022 |       0.0022 |       0.0000 |       0.0000 |       0.0010 |       0.0010 |       0.0000 |       0.0000 |       0.0004 |       0.0004 |       0.0000 |       0.0000 |       0.0002 |       0.0011 |       0.0000 |       0.0373 |       0.0005 |       0.0893 |       0.0207 |       0.1015 |       0.0873 |       0.0944 |       0.1756 |       0.1952 |       0.1095 |       0.1171 |       0.1848 |       0.2003 |
dl2.wb_rate                                 0.0307 |       0.0307 |       0.0000 |       0.0000 |       0.0153 |       0.0153 |       0.0000 |       0.0000 |       0.0061 |       0.0061 |       0.0000 |       0.0000 |       0.0027 |       0.0027 |       0.0000 |       0.0000 |       0.0012 |       0.0012 |       0.0000 |       0.0000 |       0.0005 |       0.0005 |       0.0000 |       0.0000 |       0.0002 |       0.0002 |       0.0000 |       0.0000 |       0.0001 |       0.0009 |       0.0000 |       0.0371 |       0.0004 |       0.0880 |       0.0206 |       0.0999 |       0.0526 |       0.0577 |       0.1079 |       0.1219 |       0.0665 |       0.0725 |       0.1134 |       0.1246 |
dl2.inv_rate                                0.0000 |       0.0000 |       0.0000 |       0.0000 |       0.0000 |       0.0000 |       0.0000 |       0.0000 |       0.0000 |       0.0000 |       0.0000 |       0.0000 |       0.0000 |       0.0000 |       0.0000 |       0.0000 |       0.0000 |       0.0000 |       0.0000 |       0.0000 |       0.0000 |       0.0000 |       0.0000 |       0.0000 |       0.0000 |       0.0000 |       0.0000 |       0.0000 |       0.0000 |       0.0000 |       0.0000 |       0.0000 |       0.0000 |       0.0000 |       0.0000 |       0.0000 |       0.0000 |       0.0000 |       0.0000 |       0.0000 |       0.0000 |       0.0000 |       0.0000 |       0.0000 |
itlb.accesses                               471656 |       471656 |       471656 |       471656 |      1004471 |      1004471 |      1004471 |      1004471 |      2152230 |      2152230 |      2152230 |      2152230 |      4651924 |      4651924 |      4651924 |      4651924 |      9794612 |      9794612 |      9794612 |      9794612 |     20806779 |     20806779 |     20806779 |     20806779 |     43783689 |     43783689 |     43783689 |     43783689 |     91484736 |     91484736 |     91484736 |     91484736 |    194627576 |    194627576 |    194627576 |    194627576 |    575767373 |    575767373 |    575767373 |    575767373 |   1408319206 |   1408319206 |   1408319206 |   1408319206 |
itlb.hits                                   471645 |       471645 |       471645 |       471645 |      1004460 |      1004460 |      1004460 |      1004460 |      2152219 |      2152219 |      2152219 |      2152219 |      4651913 |      4651913 |      4651913 |      4651913 |      9794601 |      9794601 |      9794601 |      9794601 |     20806768 |     20806768 |     20806768 |     20806768 |     43783678 |     43783678 |     43783678 |     43783678 |     91484725 |     91484725 |     91484725 |     91484725 |    194627565 |    194627565 |    194627565 |    194627565 |    575767362 |    575767362 |    575767362 |    575767362 |   1408319195 |   1408319195 |   1408319195 |   1408319195 |
itlb.misses                                     11 |           11 |           11 |           11 |           11 |           11 |           11 |           11 |           11 |           11 |           11 |           11 |           11 |           11 |           11 |           11 |           11 |           11 |           11 |           11 |           11 |           11 |           11 |           11 |           11 |           11 |           11 |           11 |           11 |           11 |           11 |           11 |           11 |           11 |           11 |           11 |           11 |           11 |           11 |           11 |           11 |           11 |           11 |           11 |
itlb.replacements                                0 |            0 |            0 |            0 |            0 |            0 |            0 |            0 |            0 |            0 |            0 |            0 |            0 |            0 |            0 |            0 |            0 |            0 |            0 |            0 |            0 |            0 |            0 |            0 |            0 |            0 |            0 |            0 |            0 |            0 |            0 |            0 |            0 |            0 |            0 |            0 |            0 |            0 |            0 |            0 |            0 |            0 |            0 |            0 |
itlb.writebacks                                  0 |            0 |            0 |            0 |            0 |            0 |            0 |            0 |            0 |            0 |            0 |            0 |            0 |            0 |            0 |            0 |            0 |            0 |            0 |            0 |            0 |            0 |            0 |            0 |            0 |            0 |            0 |            0 |            0 |            0 |            0 |            0 |            0 |            0 |            0 |            0 |            0 |            0 |            0 |            0 |            0 |            0 |            0 |            0 |
itlb.invalidations                               0 |            0 |            0 |            0 |            0 |            0 |            0 |            0 |            0 |            0 |            0 |            0 |            0 |            0 |            0 |            0 |            0 |            0 |            0 |            0 |            0 |            0 |            0 |            0 |            0 |            0 |            0 |            0 |            0 |            0 |            0 |            0 |            0 |            0 |            0 |            0 |            0 |            0 |            0 |            0 |            0 |            0 |            0 |            0 |
itlb.miss_rate                              0.0000 |       0.0000 |       0.0000 |       0.0000 |       0.0000 |       0.0000 |       0.0000 |       0.0000 |       0.0000 |       0.0000 |       0.0000 |       0.0000 |       0.0000 |       0.0000 |       0.0000 |       0.0000 |       0.0000 |       0.0000 |       0.0000 |       0.0000 |       0.0000 |       0.0000 |       0.0000 |       0.0000 |       0.0000 |       0.0000 |       0.0000 |       0.0000 |       0.0000 |       0.0000 |       0.0000 |       0.0000 |       0.0000 |       0.0000 |       0.0000 |       0.0000 |       0.0000 |       0.0000 |       0.0000 |       0.0000 |       0.0000 |       0.0000 |       0.0000 |       0.0000 |
itlb.repl_rate                              0.0000 |       0.0000 |       0.0000 |       0.0000 |       0.0000 |       0.0000 |       0.0000 |       0.0000 |       0.0000 |       0.0000 |       0.0000 |       0.0000 |       0.0000 |       0.0000 |       0.0000 |       0.0000 |       0.0000 |       0.0000 |       0.0000 |       0.0000 |       0.0000 |       0.0000 |       0.0000 |       0.0000 |       0.0000 |       0.0000 |       0.0000 |       0.0000 |       0.0000 |       0.0000 |       0.0000 |       0.0000 |       0.0000 |       0.0000 |       0.0000 |       0.0000 |       0.0000 |       0.0000 |       0.0000 |       0.0000 |       0.0000 |       0.0000 |       0.0000 |       0.0000 |
itlb.wb_rate                                0.0000 |       0.0000 |       0.0000 |       0.0000 |       0.0000 |       0.0000 |       0.0000 |       0.0000 |       0.0000 |       0.0000 |       0.0000 |       0.0000 |       0.0000 |       0.0000 |       0.0000 |       0.0000 |       0.0000 |       0.0000 |       0.0000 |       0.0000 |       0.0000 |       0.0000 |       0.0000 |       0.0000 |       0.0000 |       0.0000 |       0.0000 |       0.0000 |       0.0000 |       0.0000 |       0.0000 |       0.0000 |       0.0000 |       0.0000 |       0.0000 |       0.0000 |       0.0000 |       0.0000 |       0.0000 |       0.0000 |       0.0000 |       0.0000 |       0.0000 |       0.0000 |
itlb.inv_rate                               0.0000 |       0.0000 |       0.0000 |       0.0000 |       0.0000 |       0.0000 |       0.0000 |       0.0000 |       0.0000 |       0.0000 |       0.0000 |       0.0000 |       0.0000 |       0.0000 |       0.0000 |       0.0000 |       0.0000 |       0.0000 |       0.0000 |       0.0000 |       0.0000 |       0.0000 |       0.0000 |       0.0000 |       0.0000 |       0.0000 |       0.0000 |       0.0000 |       0.0000 |       0.0000 |       0.0000 |       0.0000 |       0.0000 |       0.0000 |       0.0000 |       0.0000 |       0.0000 |       0.0000 |       0.0000 |       0.0000 |       0.0000 |       0.0000 |       0.0000 |       0.0000 |
dtlb.accesses                               140230 |       140230 |       140230 |       140230 |       292998 |       292998 |       292998 |       292998 |       618098 |       618098 |       618098 |       618098 |      1307379 |      1307379 |      1307379 |      1307379 |      2737484 |      2737484 |      2737484 |      2737484 |      5749734 |      5749734 |      5749734 |      5749734 |     12019860 |     12019860 |     12019860 |     12019860 |     25025876 |     25025876 |     25025876 |     25025876 |     52552777 |     52552777 |     52552777 |     52552777 |    142616157 |    142616157 |    142616157 |    142616157 |    322655790 |    322655790 |    322655790 |    322655790 |
dtlb.hits                                   140218 |       140218 |       140218 |       140218 |       292982 |       292982 |       292982 |       292982 |       618074 |       618074 |       618074 |       618074 |      1307339 |      1307339 |      1307339 |      1307339 |      2737412 |      2737412 |      2737412 |      2737412 |      5749574 |      5749574 |      5749574 |      5749574 |     12019077 |     12019077 |     12019077 |     12019077 |     25023883 |     25023883 |     25023883 |     25023883 |     52547061 |     52547061 |     52547061 |     52547061 |    142601853 |    142601853 |    142601853 |    142601853 |    322626081 |    322626081 |    322626081 |    322626081 |
dtlb.misses                                     12 |           12 |           12 |           12 |           16 |           16 |           16 |           16 |           24 |           24 |           24 |           24 |           40 |           40 |           40 |           40 |           72 |           72 |           72 |           72 |          160 |          160 |          160 |          160 |          783 |          783 |          783 |          783 |         1993 |         1993 |         1993 |         1993 |         5716 |         5716 |         5716 |         5716 |        14304 |        14304 |        14304 |        14304 |        29709 |        29709 |        29709 |        29709 |
dtlb.replacements                                0 |            0 |            0 |            0 |            0 |            0 |            0 |            0 |            0 |            0 |            0 |            0 |            0 |            0 |            0 |            0 |            0 |            0 |            0 |            0 |           32 |           32 |           32 |           32 |          655 |          655 |          655 |          655 |         1865 |         1865 |         1865 |         1865 |         5588 |         5588 |         5588 |         5588 |        14176 |        14176 |        14176 |        14176 |        29581 |        29581 |        29581 |        29581 |
dtlb.writebacks                                  0 |            0 |            0 |            0 |            0 |            0 |            0 |            0 |            0 |            0 |            0 |            0 |            0 |            0 |            0 |            0 |            0 |            0 |            0 |            0 |           30 |           30 |           30 |           30 |          653 |          653 |          653 |          653 |         1863 |         1863 |         1863 |         1863 |         5586 |         5586 |         5586 |         5586 |        12112 |        12112 |        12112 |        12112 |        25457 |        25457 |        25457 |        25457 |
dtlb.invalidations                               0 |            0 |            0 |            0 |            0 |            0 |            0 |            0 |            0 |            0 |            0 |            0 |            0 |            0 |            0 |            0 |            0 |            0 |            0 |            0 |            0 |            0 |            0 |            0 |            0 |            0 |            0 |            0 |            0 |            0 |            0 |            0 |            0 |            0 |            0 |            0 |            0 |            0 |            0 |            0 |            0 |            0 |            0 |            0 |
dtlb.miss_rate                              0.0001 |       0.0001 |       0.0001 |       0.0001 |       0.0001 |       0.0001 |       0.0001 |       0.0001 |       0.0000 |       0.0000 |       0.0000 |       0.0000 |       0.0000 |       0.0000 |       0.0000 |       0.0000 |       0.0000 |       0.0000 |       0.0000 |       0.0000 |       0.0000 |       0.0000 |       0.0000 |       0.0000 |       0.0001 |       0.0001 |       0.0001 |       0.0001 |       0.0001 |       0.0001 |       0.0001 |       0.0001 |       0.0001 |       0.0001 |       0.0001 |       0.0001 |       0.0001 |       0.0001 |       0.0001 |       0.0001 |       0.0001 |       0.0001 |       0.0001 |       0.0001 |
dtlb.repl_rate                              0.0000 |       0.0000 |       0.0000 |       0.0000 |       0.0000 |       0.0000 |       0.0000 |       0.0000 |       0.0000 |       0.0000 |       0.0000 |       0.0000 |       0.0000 |       0.0000 |       0.0000 |       0.0000 |       0.0000 |       0.0000 |       0.0000 |       0.0000 |       0.0000 |       0.0000 |       0.0000 |       0.0000 |       0.0001 |       0.0001 |       0.0001 |       0.0001 |       0.0001 |       0.0001 |       0.0001 |       0.0001 |       0.0001 |       0.0001 |       0.0001 |       0.0001 |       0.0001 |       0.0001 |       0.0001 |       0.0001 |       0.0001 |       0.0001 |       0.0001 |       0.0001 |
dtlb.wb_rate                                0.0000 |       0.0000 |       0.0000 |       0.0000 |       0.0000 |       0.0000 |       0.0000 |       0.0000 |       0.0000 |       0.0000 |       0.0000 |       0.0000 |       0.0000 |       0.0000 |       0.0000 |       0.0000 |       0.0000 |       0.0000 |       0.0000 |       0.0000 |       0.0000 |       0.0000 |       0.0000 |       0.0000 |       0.0001 |       0.0001 |       0.0001 |       0.0001 |       0.0001 |       0.0001 |       0.0001 |       0.0001 |       0.0001 |       0.0001 |       0.0001 |       0.0001 |       0.0001 |       0.0001 |       0.0001 |       0.0001 |       0.0001 |       0.0001 |       0.0001 |       0.0001 |
dtlb.inv_rate                               0.0000 |       0.0000 |       0.0000 |       0.0000 |       0.0000 |       0.0000 |       0.0000 |       0.0000 |       0.0000 |       0.0000 |       0.0000 |       0.0000 |       0.0000 |       0.0000 |       0.0000 |       0.0000 |       0.0000 |       0.0000 |       0.0000 |       0.0000 |       0.0000 |       0.0000 |       0.0000 |       0.0000 |       0.0000 |       0.0000 |       0.0000 |       0.0000 |       0.0000 |       0.0000 |       0.0000 |       0.0000 |       0.0000 |       0.0000 |       0.0000 |       0.0000 |       0.0000 |       0.0000 |       0.0000 |       0.0000 |       0.0000 |       0.0000 |       0.0000 |       0.0000 |
ld_text_base                            0x00400000 |   0x00400000 |   0x00400000 |   0x00400000 |   0x00400000 |   0x00400000 |   0x00400000 |   0x00400000 |   0x00400000 |   0x00400000 |   0x00400000 |   0x00400000 |   0x00400000 |   0x00400000 |   0x00400000 |   0x00400000 |   0x00400000 |   0x00400000 |   0x00400000 |   0x00400000 |   0x00400000 |   0x00400000 |   0x00400000 |   0x00400000 |   0x00400000 |   0x00400000 |   0x00400000 |   0x00400000 |   0x00400000 |   0x00400000 |   0x00400000 |   0x00400000 |   0x00400000 |   0x00400000 |   0x00400000 |   0x00400000 |   0x00400000 |   0x00400000 |   0x00400000 |   0x00400000 |   0x00400000 |   0x00400000 |   0x00400000 |   0x00400000 |
ld_text_size                                 78480 |        78480 |        78480 |        78480 |        78512 |        78512 |        78512 |        78512 |        78528 |        78528 |        78528 |        78528 |        78544 |        78544 |        78544 |        78544 |        78544 |        78544 |        78544 |        78544 |        78544 |        78544 |        78544 |        78544 |        78544 |        78544 |        78544 |        78544 |        78544 |        78544 |        78544 |        78544 |        78544 |        78544 |        78544 |        78544 |        78544 |        78544 |        78544 |        78544 |        78544 |        78544 |        78544 |        78544 |
ld_data_base                            0x10000000 |   0x10000000 |   0x10000000 |   0x10000000 |   0x10000000 |   0x10000000 |   0x10000000 |   0x10000000 |   0x10000000 |   0x10000000 |   0x10000000 |   0x10000000 |   0x10000000 |   0x10000000 |   0x10000000 |   0x10000000 |   0x10000000 |   0x10000000 |   0x10000000 |   0x10000000 |   0x10000000 |   0x10000000 |   0x10000000 |   0x10000000 |   0x10000000 |   0x10000000 |   0x10000000 |   0x10000000 |   0x10000000 |   0x10000000 |   0x10000000 |   0x10000000 |   0x10000000 |   0x10000000 |   0x10000000 |   0x10000000 |   0x10000000 |   0x10000000 |   0x10000000 |   0x10000000 |   0x10000000 |   0x10000000 |   0x10000000 |   0x10000000 |
ld_data_size                                  8192 |         8192 |         8192 |         8192 |         8192 |         8192 |         8192 |         8192 |         8192 |         8192 |         8192 |         8192 |         8192 |         8192 |         8192 |         8192 |         8192 |         8192 |         8192 |         8192 |         8192 |         8192 |         8192 |         8192 |         8192 |         8192 |         8192 |         8192 |         8192 |         8192 |         8192 |         8192 |         8192 |         8192 |         8192 |         8192 |         8192 |         8192 |         8192 |         8192 |         8192 |         8192 |         8192 |         8192 |
ld_stack_base                           0x7fffc000 |   0x7fffc000 |   0x7fffc000 |   0x7fffc000 |   0x7fffc000 |   0x7fffc000 |   0x7fffc000 |   0x7fffc000 |   0x7fffc000 |   0x7fffc000 |   0x7fffc000 |   0x7fffc000 |   0x7fffc000 |   0x7fffc000 |   0x7fffc000 |   0x7fffc000 |   0x7fffc000 |   0x7fffc000 |   0x7fffc000 |   0x7fffc000 |   0x7fffc000 |   0x7fffc000 |   0x7fffc000 |   0x7fffc000 |   0x7fffc000 |   0x7fffc000 |   0x7fffc000 |   0x7fffc000 |   0x7fffc000 |   0x7fffc000 |   0x7fffc000 |   0x7fffc000 |   0x7fffc000 |   0x7fffc000 |   0x7fffc000 |   0x7fffc000 |   0x7fffc000 |   0x7fffc000 |   0x7fffc000 |   0x7fffc000 |   0x7fffc000 |   0x7fffc000 |   0x7fffc000 |   0x7fffc000 |
ld_stack_size                                16384 |        16384 |        16384 |        16384 |        16384 |        16384 |        16384 |        16384 |        16384 |        16384 |        16384 |        16384 |        16384 |        16384 |        16384 |        16384 |        16384 |        16384 |        16384 |        16384 |        16384 |        16384 |        16384 |        16384 |        16384 |        16384 |        16384 |        16384 |        16384 |        16384 |        16384 |        16384 |        16384 |        16384 |        16384 |        16384 |        16384 |        16384 |        16384 |        16384 |        16384 |        16384 |        16384 |        16384 |
ld_prog_entry                           0x00400140 |   0x00400140 |   0x00400140 |   0x00400140 |   0x00400140 |   0x00400140 |   0x00400140 |   0x00400140 |   0x00400140 |   0x00400140 |   0x00400140 |   0x00400140 |   0x00400140 |   0x00400140 |   0x00400140 |   0x00400140 |   0x00400140 |   0x00400140 |   0x00400140 |   0x00400140 |   0x00400140 |   0x00400140 |   0x00400140 |   0x00400140 |   0x00400140 |   0x00400140 |   0x00400140 |   0x00400140 |   0x00400140 |   0x00400140 |   0x00400140 |   0x00400140 |   0x00400140 |   0x00400140 |   0x00400140 |   0x00400140 |   0x00400140 |   0x00400140 |   0x00400140 |   0x00400140 |   0x00400140 |   0x00400140 |   0x00400140 |   0x00400140 |
ld_environ_base                         0x7fff8000 |   0x7fff8000 |   0x7fff8000 |   0x7fff8000 |   0x7fff8000 |   0x7fff8000 |   0x7fff8000 |   0x7fff8000 |   0x7fff8000 |   0x7fff8000 |   0x7fff8000 |   0x7fff8000 |   0x7fff8000 |   0x7fff8000 |   0x7fff8000 |   0x7fff8000 |   0x7fff8000 |   0x7fff8000 |   0x7fff8000 |   0x7fff8000 |   0x7fff8000 |   0x7fff8000 |   0x7fff8000 |   0x7fff8000 |   0x7fff8000 |   0x7fff8000 |   0x7fff8000 |   0x7fff8000 |   0x7fff8000 |   0x7fff8000 |   0x7fff8000 |   0x7fff8000 |   0x7fff8000 |   0x7fff8000 |   0x7fff8000 |   0x7fff8000 |   0x7fff8000 |   0x7fff8000 |   0x7fff8000 |   0x7fff8000 |   0x7fff8000 |   0x7fff8000 |   0x7fff8000 |   0x7fff8000 |
ld_target_big_endian                             0 |            0 |            0 |            0 |            0 |            0 |            0 |            0 |            0 |            0 |            0 |            0 |            0 |            0 |            0 |            0 |            0 |            0 |            0 |            0 |            0 |            0 |            0 |            0 |            0 |            0 |            0 |            0 |            0 |            0 |            0 |            0 |            0 |            0 |            0 |            0 |            0 |            0 |            0 |            0 |            0 |            0 |            0 |            0 |
mem.page_count                                  32 |           32 |           32 |           32 |           36 |           36 |           36 |           36 |           44 |           44 |           44 |           44 |           60 |           60 |           60 |           60 |           92 |           92 |           92 |           92 |          156 |          156 |          156 |          156 |          284 |          284 |          284 |          284 |          540 |          540 |          540 |          540 |         1052 |         1052 |         1052 |         1052 |         4148 |         4148 |         4148 |         4148 |         8268 |         8268 |         8268 |         8268 |
mem.page_mem                                  128k |         128k |         128k |         128k |         144k |         144k |         144k |         144k |         176k |         176k |         176k |         176k |         240k |         240k |         240k |         240k |         368k |         368k |         368k |         368k |         624k |         624k |         624k |         624k |        1136k |        1136k |        1136k |        1136k |        2160k |        2160k |        2160k |        2160k |        4208k |        4208k |        4208k |        4208k |       16592k |       16592k |       16592k |       16592k |       33072k |       33072k |       33072k |       33072k |
mem.ptab_misses                                 32 |           32 |           32 |           32 |           36 |           36 |           36 |           36 |           44 |           44 |           44 |           44 |           60 |           60 |           60 |           60 |           92 |           92 |           92 |           92 |          156 |          156 |          156 |          156 |          284 |          284 |          284 |          284 |          540 |          540 |          540 |          540 |         1052 |         1052 |         1052 |         1052 |        22562 |        22562 |        22562 |        22562 |        26682 |        26682 |        26682 |        26682 |
mem.ptab_accesses                          2652628 |      2652628 |      2652628 |      2652628 |      5089616 |      5089616 |      5089616 |      5089616 |     10330948 |     10330948 |     10330948 |     10330948 |     21708382 |     21708382 |     21708382 |     21708382 |     45139344 |     45139344 |     45139344 |     45139344 |     95212512 |     95212512 |     95212512 |     95212512 |    199660404 |    199660404 |    199660404 |    199660404 |    416476624 |    416476624 |    416476624 |    416476624 |    884101786 |    884101786 |    884101786 |    884101786 |   2588787734 |   2588787734 |   2588787734 |   2588787734 |   6279074332 |   6279074332 |   6279074332 |   6279074332 |
mem.ptab_miss_rate                          0.0000 |       0.0000 |       0.0000 |       0.0000 |       0.0000 |       0.0000 |       0.0000 |       0.0000 |       0.0000 |       0.0000 |       0.0000 |       0.0000 |       0.0000 |       0.0000 |       0.0000 |       0.0000 |       0.0000 |       0.0000 |       0.0000 |       0.0000 |       0.0000 |       0.0000 |       0.0000 |       0.0000 |       0.0000 |       0.0000 |       0.0000 |       0.0000 |       0.0000 |       0.0000 |       0.0000 |       0.0000 |       0.0000 |       0.0000 |       0.0000 |       0.0000 |       0.0000 |       0.0000 |       0.0000 |       0.0000 |       0.0000 |       0.0000 |       0.0000 |       0.0000 |
-------------------------------------------------------------------------------------------------
sim-bpred                                     4096 |         4096 |         4096 |         4096 |         4096 |         4096 |         4096 |         8192 |         8192 |         8192 |         8192 |         8192 |         8192 |         8192 |        16384 |        16384 |        16384 |        16384 |        16384 |        16384 |        16384 |        32768 |        32768 |        32768 |        32768 |        32768 |        32768 |        32768 |        65536 |        65536 |        65536 |        65536 |        65536 |        65536 |        65536 |       131072 |       131072 |       131072 |       131072 |       131072 |       131072 |       131072 |       262144 |       262144 |       262144 |       262144 |       262144 |       262144 |       262144 |       524288 |       524288 |       524288 |       524288 |       524288 |       524288 |       524288 |      1048576 |      1048576 |      1048576 |      1048576 |      1048576 |      1048576 |      1048576 |      2097152 |      2097152 |      2097152 |      2097152 |      2097152 |      2097152 |      2097152 |      4194304 |      4194304 |      4194304 |      4194304 |      4194304 |      4194304 |      4194304 |
-bpred bimod -bpred:bimod 512
-bpred bimod -bpred:bimod 1024
-bpred bimod -bpred:bimod 2048
-bpred 2lev -bpred:2lev 1 512 10 1
-bpred 2lev -bpred:2lev 1 1024 10 1
-bpred 2lev -bpred:2lev 1 2048 10 1
-bpred 2lev -bpred:2lev 1 4096 10 1
-------------------------------------------------------------------------------------------------
sim_num_insn                                471656 |       471656 |       471656 |       471656 |       471656 |       471656 |       471656 |      1004471 |      1004471 |      1004471 |      1004471 |      1004471 |      1004471 |      1004471 |      2152230 |      2152230 |      2152230 |      2152230 |      2152230 |      2152230 |      2152230 |      4651924 |      4651924 |      4651924 |      4651924 |      4651924 |      4651924 |      4651924 |      9794612 |      9794612 |      9794612 |      9794612 |      9794612 |      9794612 |      9794612 |     20806779 |     20806779 |     20806779 |     20806779 |     20806779 |     20806779 |     20806779 |     43783689 |     43783689 |     43783689 |     43783689 |     43783689 |     43783689 |     43783689 |     91484736 |     91484736 |     91484736 |     91484736 |     91484736 |     91484736 |     91484736 |    194627576 |    194627576 |    194627576 |    194627576 |    194627576 |    194627576 |    194627576 |    575767373 |    575767373 |    575767373 |    575767373 |    575767373 |    575767373 |    575767373 |   1408319206 |   1408319206 |   1408319206 |   1408319206 |   1408319206 |   1408319206 |   1408319206 |
sim_num_refs                                123764 |       123764 |       123764 |       123764 |       123764 |       123764 |       123764 |       260148 |       260148 |       260148 |       260148 |       260148 |       260148 |       260148 |       552480 |       552480 |       552480 |       552480 |       552480 |       552480 |       552480 |      1176225 |      1176225 |      1176225 |      1176225 |      1176225 |      1176225 |      1176225 |      2475258 |      2475258 |      2475258 |      2475258 |      2475258 |      2475258 |      2475258 |      5225364 |      5225364 |      5225364 |      5225364 |      5225364 |      5225364 |      5225364 |     10971202 |     10971202 |     10971202 |     10971202 |     10971202 |     10971202 |     10971202 |     22928642 |     22928642 |     22928642 |     22928642 |     22928642 |     22928642 |     22928642 |     48358391 |     48358391 |     48358391 |     48358391 |     48358391 |     48358391 |     48358391 |    134227466 |    134227466 |    134227466 |    134227466 |    134227466 |    134227466 |    134227466 |    305878491 |    305878491 |    305878491 |    305878491 |    305878491 |    305878491 |    305878491 |
sim_elapsed_time                                 1 |            1 |            1 |            1 |            1 |            1 |            1 |            1 |            1 |            1 |            1 |            1 |            1 |            1 |            1 |            1 |            1 |            1 |            1 |            1 |            1 |            1 |            1 |            1 |            1 |            1 |            1 |            1 |            1 |            1 |            2 |            1 |            1 |            2 |            1 |            3 |            2 |            3 |            3 |            2 |            3 |            2 |            5 |            5 |            6 |            5 |            6 |            5 |            6 |           12 |           11 |           11 |           12 |           11 |           11 |           11 |           24 |           24 |           24 |           24 |           24 |           25 |           24 |           74 |           74 |           74 |           76 |           75 |           76 |           76 |          184 |          183 |          183 |          190 |          189 |          189 |          190 |
sim_inst_rate                          471656.0000 |  471656.0000 |  471656.0000 |  471656.0000 |  471656.0000 |  471656.0000 |  471656.0000 | 1004471.0000 | 1004471.0000 | 1004471.0000 | 1004471.0000 | 1004471.0000 | 1004471.0000 | 1004471.0000 | 2152230.0000 | 2152230.0000 | 2152230.0000 | 2152230.0000 | 2152230.0000 | 2152230.0000 | 2152230.0000 | 4651924.0000 | 4651924.0000 | 4651924.0000 | 4651924.0000 | 4651924.0000 | 4651924.0000 | 4651924.0000 | 9794612.0000 | 9794612.0000 | 4897306.0000 | 9794612.0000 | 9794612.0000 | 4897306.0000 | 9794612.0000 | 6935593.0000 |10403389.5000 | 6935593.0000 | 6935593.0000 |10403389.5000 | 6935593.0000 |10403389.5000 | 8756737.8000 | 8756737.8000 | 7297281.5000 | 8756737.8000 | 7297281.5000 | 8756737.8000 | 7297281.5000 | 7623728.0000 | 8316794.1818 | 8316794.1818 | 7623728.0000 | 8316794.1818 | 8316794.1818 | 8316794.1818 | 8109482.3333 | 8109482.3333 | 8109482.3333 | 8109482.3333 | 8109482.3333 | 7785103.0400 | 8109482.3333 | 7780640.1757 | 7780640.1757 | 7780640.1757 | 7575886.4868 | 7676898.3067 | 7575886.4868 | 7575886.4868 | 7653908.7283 | 7695733.3661 | 7695733.3661 | 7412206.3474 | 7451424.3704 | 7451424.3704 | 7412206.3474 |
sim_num_branches                             77448 |        77448 |        77448 |        77448 |        77448 |        77448 |        77448 |       166188 |       166188 |       166188 |       166188 |       166188 |       166188 |       166188 |       358706 |       358706 |       358706 |       358706 |       358706 |       358706 |       358706 |       778886 |       778886 |       778886 |       778886 |       778886 |       778886 |       778886 |      1646413 |      1646413 |      1646413 |      1646413 |      1646413 |      1646413 |      1646413 |      3512820 |      3512820 |      3512820 |      3512820 |      3512820 |      3512820 |      3512820 |      7423137 |      7423137 |      7423137 |      7423137 |      7423137 |      7423137 |      7423137 |     15553387 |     15553387 |     15553387 |     15553387 |     15553387 |     15553387 |     15553387 |     33195749 |     33195749 |     33195749 |     33195749 |     33195749 |     33195749 |     33195749 |    103901494 |    103901494 |    103901494 |    103901494 |    103901494 |    103901494 |    103901494 |    280066865 |    280066865 |    280066865 |    280066865 |    280066865 |    280066865 |    280066865 |
sim_IPB                                     6.0900 |       6.0900 |       6.0900 |       6.0900 |       6.0900 |       6.0900 |       6.0900 |       6.0442 |       6.0442 |       6.0442 |       6.0442 |       6.0442 |       6.0442 |       6.0442 |       6.0000 |       6.0000 |       6.0000 |       6.0000 |       6.0000 |       6.0000 |       6.0000 |       5.9725 |       5.9725 |       5.9725 |       5.9725 |       5.9725 |       5.9725 |       5.9725 |       5.9491 |       5.9491 |       5.9491 |       5.9491 |       5.9491 |       5.9491 |       5.9491 |       5.9231 |       5.9231 |       5.9231 |       5.9231 |       5.9231 |       5.9231 |       5.9231 |       5.8983 |       5.8983 |       5.8983 |       5.8983 |       5.8983 |       5.8983 |       5.8983 |       5.8820 |       5.8820 |       5.8820 |       5.8820 |       5.8820 |       5.8820 |       5.8820 |       5.8630 |       5.8630 |       5.8630 |       5.8630 |       5.8630 |       5.8630 |       5.8630 |       5.5415 |       5.5415 |       5.5415 |       5.5415 |       5.5415 |       5.5415 |       5.5415 |       5.0285 |       5.0285 |       5.0285 |       5.0285 |       5.0285 |       5.0285 |       5.0285 |
bpred_bimod.lookups                          77448 |        77448 |        77448 |xxxxxxxxxxxxx |xxxxxxxxxxxxx |xxxxxxxxxxxxx |xxxxxxxxxxxxx |       166188 |       166188 |       166188 |xxxxxxxxxxxxx |xxxxxxxxxxxxx |xxxxxxxxxxxxx |xxxxxxxxxxxxx |       358706 |       358706 |       358706 |xxxxxxxxxxxxx |xxxxxxxxxxxxx |xxxxxxxxxxxxx |xxxxxxxxxxxxx |       778886 |       778886 |       778886 |xxxxxxxxxxxxx |xxxxxxxxxxxxx |xxxxxxxxxxxxx |xxxxxxxxxxxxx |      1646413 |      1646413 |      1646413 |xxxxxxxxxxxxx |xxxxxxxxxxxxx |xxxxxxxxxxxxx |xxxxxxxxxxxxx |      3512820 |      3512820 |      3512820 |xxxxxxxxxxxxx |xxxxxxxxxxxxx |xxxxxxxxxxxxx |xxxxxxxxxxxxx |      7423137 |      7423137 |      7423137 |xxxxxxxxxxxxx |xxxxxxxxxxxxx |xxxxxxxxxxxxx |xxxxxxxxxxxxx |     15553387 |     15553387 |     15553387 |xxxxxxxxxxxxx |xxxxxxxxxxxxx |xxxxxxxxxxxxx |xxxxxxxxxxxxx |     33195749 |     33195749 |     33195749 |xxxxxxxxxxxxx |xxxxxxxxxxxxx |xxxxxxxxxxxxx |xxxxxxxxxxxxx |    103901494 |    103901494 |    103901494 |xxxxxxxxxxxxx |xxxxxxxxxxxxx |xxxxxxxxxxxxx |xxxxxxxxxxxxx |    280066865 |    280066865 |    280066865 |
bpred_bimod.updates                          77448 |        77448 |        77448 |xxxxxxxxxxxxx |xxxxxxxxxxxxx |xxxxxxxxxxxxx |xxxxxxxxxxxxx |       166188 |       166188 |       166188 |xxxxxxxxxxxxx |xxxxxxxxxxxxx |xxxxxxxxxxxxx |xxxxxxxxxxxxx |       358706 |       358706 |       358706 |xxxxxxxxxxxxx |xxxxxxxxxxxxx |xxxxxxxxxxxxx |xxxxxxxxxxxxx |       778886 |       778886 |       778886 |xxxxxxxxxxxxx |xxxxxxxxxxxxx |xxxxxxxxxxxxx |xxxxxxxxxxxxx |      1646413 |      1646413 |      1646413 |xxxxxxxxxxxxx |xxxxxxxxxxxxx |xxxxxxxxxxxxx |xxxxxxxxxxxxx |      3512820 |      3512820 |      3512820 |xxxxxxxxxxxxx |xxxxxxxxxxxxx |xxxxxxxxxxxxx |xxxxxxxxxxxxx |      7423137 |      7423137 |      7423137 |xxxxxxxxxxxxx |xxxxxxxxxxxxx |xxxxxxxxxxxxx |xxxxxxxxxxxxx |     15553387 |     15553387 |     15553387 |xxxxxxxxxxxxx |xxxxxxxxxxxxx |xxxxxxxxxxxxx |xxxxxxxxxxxxx |     33195749 |     33195749 |     33195749 |xxxxxxxxxxxxx |xxxxxxxxxxxxx |xxxxxxxxxxxxx |xxxxxxxxxxxxx |    103901494 |    103901494 |    103901494 |xxxxxxxxxxxxx |xxxxxxxxxxxxx |xxxxxxxxxxxxx |xxxxxxxxxxxxx |    280066865 |    280066865 |    280066865 |
bpred_bimod.addr_hits                        55851 |        55850 |        55850 |xxxxxxxxxxxxx |xxxxxxxxxxxxx |xxxxxxxxxxxxx |xxxxxxxxxxxxx |       119703 |       119705 |       119704 |xxxxxxxxxxxxx |xxxxxxxxxxxxx |xxxxxxxxxxxxx |xxxxxxxxxxxxx |       260827 |       260827 |       260828 |xxxxxxxxxxxxx |xxxxxxxxxxxxx |xxxxxxxxxxxxx |xxxxxxxxxxxxx |       569417 |       569417 |       569417 |xxxxxxxxxxxxx |xxxxxxxxxxxxx |xxxxxxxxxxxxx |xxxxxxxxxxxxx |      1191214 |      1191213 |      1191214 |xxxxxxxxxxxxx |xxxxxxxxxxxxx |xxxxxxxxxxxxx |xxxxxxxxxxxxx |      2563833 |      2563832 |      2563832 |xxxxxxxxxxxxx |xxxxxxxxxxxxx |xxxxxxxxxxxxx |xxxxxxxxxxxxx |      5380916 |      5380915 |      5380916 |xxxxxxxxxxxxx |xxxxxxxxxxxxx |xxxxxxxxxxxxx |xxxxxxxxxxxxx |     11172129 |     11172127 |     11172128 |xxxxxxxxxxxxx |xxxxxxxxxxxxx |xxxxxxxxxxxxx |xxxxxxxxxxxxx |     24239426 |     24239426 |     24239427 |xxxxxxxxxxxxx |xxxxxxxxxxxxx |xxxxxxxxxxxxx |xxxxxxxxxxxxx |     85649545 |     85649562 |     85649562 |xxxxxxxxxxxxx |xxxxxxxxxxxxx |xxxxxxxxxxxxx |xxxxxxxxxxxxx |    243384870 |    243384913 |    243384914 |
bpred_bimod.dir_hits                         55965 |        55962 |        55961 |xxxxxxxxxxxxx |xxxxxxxxxxxxx |xxxxxxxxxxxxx |xxxxxxxxxxxxx |       119820 |       119821 |       119820 |xxxxxxxxxxxxx |xxxxxxxxxxxxx |xxxxxxxxxxxxx |xxxxxxxxxxxxx |       260941 |       260940 |       260942 |xxxxxxxxxxxxx |xxxxxxxxxxxxx |xxxxxxxxxxxxx |xxxxxxxxxxxxx |       569533 |       569532 |       569531 |xxxxxxxxxxxxx |xxxxxxxxxxxxx |xxxxxxxxxxxxx |xxxxxxxxxxxxx |      1191331 |      1191328 |      1191328 |xxxxxxxxxxxxx |xxxxxxxxxxxxx |xxxxxxxxxxxxx |xxxxxxxxxxxxx |      2563947 |      2563944 |      2563943 |xxxxxxxxxxxxx |xxxxxxxxxxxxx |xxxxxxxxxxxxx |xxxxxxxxxxxxx |      5381036 |      5381033 |      5381033 |xxxxxxxxxxxxx |xxxxxxxxxxxxx |xxxxxxxxxxxxx |xxxxxxxxxxxxx |     11172245 |     11172241 |     11172242 |xxxxxxxxxxxxx |xxxxxxxxxxxxx |xxxxxxxxxxxxx |xxxxxxxxxxxxx |     24239544 |     24239543 |     24239543 |xxxxxxxxxxxxx |xxxxxxxxxxxxx |xxxxxxxxxxxxx |xxxxxxxxxxxxx |     85649715 |     85649728 |     85649727 |xxxxxxxxxxxxx |xxxxxxxxxxxxx |xxxxxxxxxxxxx |xxxxxxxxxxxxx |    243385036 |    243385075 |    243385075 |
bpred_bimod.misses                           21483 |        21486 |        21487 |xxxxxxxxxxxxx |xxxxxxxxxxxxx |xxxxxxxxxxxxx |xxxxxxxxxxxxx |        46368 |        46367 |        46368 |xxxxxxxxxxxxx |xxxxxxxxxxxxx |xxxxxxxxxxxxx |xxxxxxxxxxxxx |        97765 |        97766 |        97764 |xxxxxxxxxxxxx |xxxxxxxxxxxxx |xxxxxxxxxxxxx |xxxxxxxxxxxxx |       209353 |       209354 |       209355 |xxxxxxxxxxxxx |xxxxxxxxxxxxx |xxxxxxxxxxxxx |xxxxxxxxxxxxx |       455082 |       455085 |       455085 |xxxxxxxxxxxxx |xxxxxxxxxxxxx |xxxxxxxxxxxxx |xxxxxxxxxxxxx |       948873 |       948876 |       948877 |xxxxxxxxxxxxx |xxxxxxxxxxxxx |xxxxxxxxxxxxx |xxxxxxxxxxxxx |      2042101 |      2042104 |      2042104 |xxxxxxxxxxxxx |xxxxxxxxxxxxx |xxxxxxxxxxxxx |xxxxxxxxxxxxx |      4381142 |      4381146 |      4381145 |xxxxxxxxxxxxx |xxxxxxxxxxxxx |xxxxxxxxxxxxx |xxxxxxxxxxxxx |      8956205 |      8956206 |      8956206 |xxxxxxxxxxxxx |xxxxxxxxxxxxx |xxxxxxxxxxxxx |xxxxxxxxxxxxx |     18251779 |     18251766 |     18251767 |xxxxxxxxxxxxx |xxxxxxxxxxxxx |xxxxxxxxxxxxx |xxxxxxxxxxxxx |     36681829 |     36681790 |     36681790 |
bpred_bimod.jr_hits                             65 |           65 |           65 |xxxxxxxxxxxxx |xxxxxxxxxxxxx |xxxxxxxxxxxxx |xxxxxxxxxxxxx |           65 |           65 |           65 |xxxxxxxxxxxxx |xxxxxxxxxxxxx |xxxxxxxxxxxxx |xxxxxxxxxxxxx |           65 |           65 |           65 |xxxxxxxxxxxxx |xxxxxxxxxxxxx |xxxxxxxxxxxxx |xxxxxxxxxxxxx |           65 |           65 |           65 |xxxxxxxxxxxxx |xxxxxxxxxxxxx |xxxxxxxxxxxxx |xxxxxxxxxxxxx |           65 |           65 |           65 |xxxxxxxxxxxxx |xxxxxxxxxxxxx |xxxxxxxxxxxxx |xxxxxxxxxxxxx |           65 |           65 |           65 |xxxxxxxxxxxxx |xxxxxxxxxxxxx |xxxxxxxxxxxxx |xxxxxxxxxxxxx |           65 |           65 |           65 |xxxxxxxxxxxxx |xxxxxxxxxxxxx |xxxxxxxxxxxxx |xxxxxxxxxxxxx |           65 |           65 |           65 |xxxxxxxxxxxxx |xxxxxxxxxxxxx |xxxxxxxxxxxxx |xxxxxxxxxxxxx |           65 |           65 |           65 |xxxxxxxxxxxxx |xxxxxxxxxxxxx |xxxxxxxxxxxxx |xxxxxxxxxxxxx |          110 |          110 |          110 |xxxxxxxxxxxxx |xxxxxxxxxxxxx |xxxxxxxxxxxxx |xxxxxxxxxxxxx |          122 |          122 |          122 |
bpred_bimod.jr_seen                             65 |           65 |           65 |xxxxxxxxxxxxx |xxxxxxxxxxxxx |xxxxxxxxxxxxx |xxxxxxxxxxxxx |           65 |           65 |           65 |xxxxxxxxxxxxx |xxxxxxxxxxxxx |xxxxxxxxxxxxx |xxxxxxxxxxxxx |           65 |           65 |           65 |xxxxxxxxxxxxx |xxxxxxxxxxxxx |xxxxxxxxxxxxx |xxxxxxxxxxxxx |           65 |           65 |           65 |xxxxxxxxxxxxx |xxxxxxxxxxxxx |xxxxxxxxxxxxx |xxxxxxxxxxxxx |           65 |           65 |           65 |xxxxxxxxxxxxx |xxxxxxxxxxxxx |xxxxxxxxxxxxx |xxxxxxxxxxxxx |           65 |           65 |           65 |xxxxxxxxxxxxx |xxxxxxxxxxxxx |xxxxxxxxxxxxx |xxxxxxxxxxxxx |           65 |           65 |           65 |xxxxxxxxxxxxx |xxxxxxxxxxxxx |xxxxxxxxxxxxx |xxxxxxxxxxxxx |           65 |           65 |           65 |xxxxxxxxxxxxx |xxxxxxxxxxxxx |xxxxxxxxxxxxx |xxxxxxxxxxxxx |           65 |           65 |           65 |xxxxxxxxxxxxx |xxxxxxxxxxxxx |xxxxxxxxxxxxx |xxxxxxxxxxxxx |          111 |          111 |          111 |xxxxxxxxxxxxx |xxxxxxxxxxxxx |xxxxxxxxxxxxx |xxxxxxxxxxxxx |          123 |          123 |          123 |
bpred_bimod.jr_non_ras_hits.PP                   0 |            0 |            0 |xxxxxxxxxxxxx |xxxxxxxxxxxxx |xxxxxxxxxxxxx |xxxxxxxxxxxxx |            0 |            0 |            0 |xxxxxxxxxxxxx |xxxxxxxxxxxxx |xxxxxxxxxxxxx |xxxxxxxxxxxxx |            0 |            0 |            0 |xxxxxxxxxxxxx |xxxxxxxxxxxxx |xxxxxxxxxxxxx |xxxxxxxxxxxxx |            0 |            0 |            0 |xxxxxxxxxxxxx |xxxxxxxxxxxxx |xxxxxxxxxxxxx |xxxxxxxxxxxxx |            0 |            0 |            0 |xxxxxxxxxxxxx |xxxxxxxxxxxxx |xxxxxxxxxxxxx |xxxxxxxxxxxxx |            0 |            0 |            0 |xxxxxxxxxxxxx |xxxxxxxxxxxxx |xxxxxxxxxxxxx |xxxxxxxxxxxxx |            0 |            0 |            0 |xxxxxxxxxxxxx |xxxxxxxxxxxxx |xxxxxxxxxxxxx |xxxxxxxxxxxxx |            0 |            0 |            0 |xxxxxxxxxxxxx |xxxxxxxxxxxxx |xxxxxxxxxxxxx |xxxxxxxxxxxxx |            0 |            0 |            0 |xxxxxxxxxxxxx |xxxxxxxxxxxxx |xxxxxxxxxxxxx |xxxxxxxxxxxxx |            0 |            0 |            0 |xxxxxxxxxxxxx |xxxxxxxxxxxxx |xxxxxxxxxxxxx |xxxxxxxxxxxxx |            0 |            0 |            0 |
bpred_bimod.jr_non_ras_seen.PP                   0 |            0 |            0 |xxxxxxxxxxxxx |xxxxxxxxxxxxx |xxxxxxxxxxxxx |xxxxxxxxxxxxx |            0 |            0 |            0 |xxxxxxxxxxxxx |xxxxxxxxxxxxx |xxxxxxxxxxxxx |xxxxxxxxxxxxx |            0 |            0 |            0 |xxxxxxxxxxxxx |xxxxxxxxxxxxx |xxxxxxxxxxxxx |xxxxxxxxxxxxx |            0 |            0 |            0 |xxxxxxxxxxxxx |xxxxxxxxxxxxx |xxxxxxxxxxxxx |xxxxxxxxxxxxx |            0 |            0 |            0 |xxxxxxxxxxxxx |xxxxxxxxxxxxx |xxxxxxxxxxxxx |xxxxxxxxxxxxx |            0 |            0 |            0 |xxxxxxxxxxxxx |xxxxxxxxxxxxx |xxxxxxxxxxxxx |xxxxxxxxxxxxx |            0 |            0 |            0 |xxxxxxxxxxxxx |xxxxxxxxxxxxx |xxxxxxxxxxxxx |xxxxxxxxxxxxx |            0 |            0 |            0 |xxxxxxxxxxxxx |xxxxxxxxxxxxx |xxxxxxxxxxxxx |xxxxxxxxxxxxx |            0 |            0 |            0 |xxxxxxxxxxxxx |xxxxxxxxxxxxx |xxxxxxxxxxxxx |xxxxxxxxxxxxx |            1 |            1 |            1 |xxxxxxxxxxxxx |xxxxxxxxxxxxx |xxxxxxxxxxxxx |xxxxxxxxxxxxx |            1 |            1 |            1 |
bpred_bimod.bpred_addr_rate                 0.7211 |       0.7211 |       0.7211 |xxxxxxxxxxxxx |xxxxxxxxxxxxx |xxxxxxxxxxxxx |xxxxxxxxxxxxx |       0.7203 |       0.7203 |       0.7203 |xxxxxxxxxxxxx |xxxxxxxxxxxxx |xxxxxxxxxxxxx |xxxxxxxxxxxxx |       0.7271 |       0.7271 |       0.7271 |xxxxxxxxxxxxx |xxxxxxxxxxxxx |xxxxxxxxxxxxx |xxxxxxxxxxxxx |       0.7311 |       0.7311 |       0.7311 |xxxxxxxxxxxxx |xxxxxxxxxxxxx |xxxxxxxxxxxxx |xxxxxxxxxxxxx |       0.7235 |       0.7235 |       0.7235 |xxxxxxxxxxxxx |xxxxxxxxxxxxx |xxxxxxxxxxxxx |xxxxxxxxxxxxx |       0.7299 |       0.7299 |       0.7299 |xxxxxxxxxxxxx |xxxxxxxxxxxxx |xxxxxxxxxxxxx |xxxxxxxxxxxxx |       0.7249 |       0.7249 |       0.7249 |xxxxxxxxxxxxx |xxxxxxxxxxxxx |xxxxxxxxxxxxx |xxxxxxxxxxxxx |       0.7183 |       0.7183 |       0.7183 |xxxxxxxxxxxxx |xxxxxxxxxxxxx |xxxxxxxxxxxxx |xxxxxxxxxxxxx |       0.7302 |       0.7302 |       0.7302 |xxxxxxxxxxxxx |xxxxxxxxxxxxx |xxxxxxxxxxxxx |xxxxxxxxxxxxx |       0.8243 |       0.8243 |       0.8243 |xxxxxxxxxxxxx |xxxxxxxxxxxxx |xxxxxxxxxxxxx |xxxxxxxxxxxxx |       0.8690 |       0.8690 |       0.8690 |
bpred_bimod.bpred_dir_rate                  0.7226 |       0.7226 |       0.7226 |xxxxxxxxxxxxx |xxxxxxxxxxxxx |xxxxxxxxxxxxx |xxxxxxxxxxxxx |       0.7210 |       0.7210 |       0.7210 |xxxxxxxxxxxxx |xxxxxxxxxxxxx |xxxxxxxxxxxxx |xxxxxxxxxxxxx |       0.7275 |       0.7274 |       0.7275 |xxxxxxxxxxxxx |xxxxxxxxxxxxx |xxxxxxxxxxxxx |xxxxxxxxxxxxx |       0.7312 |       0.7312 |       0.7312 |xxxxxxxxxxxxx |xxxxxxxxxxxxx |xxxxxxxxxxxxx |xxxxxxxxxxxxx |       0.7236 |       0.7236 |       0.7236 |xxxxxxxxxxxxx |xxxxxxxxxxxxx |xxxxxxxxxxxxx |xxxxxxxxxxxxx |       0.7299 |       0.7299 |       0.7299 |xxxxxxxxxxxxx |xxxxxxxxxxxxx |xxxxxxxxxxxxx |xxxxxxxxxxxxx |       0.7249 |       0.7249 |       0.7249 |xxxxxxxxxxxxx |xxxxxxxxxxxxx |xxxxxxxxxxxxx |xxxxxxxxxxxxx |       0.7183 |       0.7183 |       0.7183 |xxxxxxxxxxxxx |xxxxxxxxxxxxx |xxxxxxxxxxxxx |xxxxxxxxxxxxx |       0.7302 |       0.7302 |       0.7302 |xxxxxxxxxxxxx |xxxxxxxxxxxxx |xxxxxxxxxxxxx |xxxxxxxxxxxxx |       0.8243 |       0.8243 |       0.8243 |xxxxxxxxxxxxx |xxxxxxxxxxxxx |xxxxxxxxxxxxx |xxxxxxxxxxxxx |       0.8690 |       0.8690 |       0.8690 |
bpred_bimod.bpred_jr_rate                   1.0000 |       1.0000 |       1.0000 |xxxxxxxxxxxxx |xxxxxxxxxxxxx |xxxxxxxxxxxxx |xxxxxxxxxxxxx |       1.0000 |       1.0000 |       1.0000 |xxxxxxxxxxxxx |xxxxxxxxxxxxx |xxxxxxxxxxxxx |xxxxxxxxxxxxx |       1.0000 |       1.0000 |       1.0000 |xxxxxxxxxxxxx |xxxxxxxxxxxxx |xxxxxxxxxxxxx |xxxxxxxxxxxxx |       1.0000 |       1.0000 |       1.0000 |xxxxxxxxxxxxx |xxxxxxxxxxxxx |xxxxxxxxxxxxx |xxxxxxxxxxxxx |       1.0000 |       1.0000 |       1.0000 |xxxxxxxxxxxxx |xxxxxxxxxxxxx |xxxxxxxxxxxxx |xxxxxxxxxxxxx |       1.0000 |       1.0000 |       1.0000 |xxxxxxxxxxxxx |xxxxxxxxxxxxx |xxxxxxxxxxxxx |xxxxxxxxxxxxx |       1.0000 |       1.0000 |       1.0000 |xxxxxxxxxxxxx |xxxxxxxxxxxxx |xxxxxxxxxxxxx |xxxxxxxxxxxxx |       1.0000 |       1.0000 |       1.0000 |xxxxxxxxxxxxx |xxxxxxxxxxxxx |xxxxxxxxxxxxx |xxxxxxxxxxxxx |       1.0000 |       1.0000 |       1.0000 |xxxxxxxxxxxxx |xxxxxxxxxxxxx |xxxxxxxxxxxxx |xxxxxxxxxxxxx |       0.9910 |       0.9910 |       0.9910 |xxxxxxxxxxxxx |xxxxxxxxxxxxx |xxxxxxxxxxxxx |xxxxxxxxxxxxx |       0.9919 |       0.9919 |       0.9919 |
bpred_bimod.bpred_jr_non_ras_rate.PP       <error: |      <error: |      <error: |xxxxxxxxxxxxx |xxxxxxxxxxxxx |xxxxxxxxxxxxx |xxxxxxxxxxxxx |      <error: |      <error: |      <error: |xxxxxxxxxxxxx |xxxxxxxxxxxxx |xxxxxxxxxxxxx |xxxxxxxxxxxxx |      <error: |      <error: |      <error: |xxxxxxxxxxxxx |xxxxxxxxxxxxx |xxxxxxxxxxxxx |xxxxxxxxxxxxx |      <error: |      <error: |      <error: |xxxxxxxxxxxxx |xxxxxxxxxxxxx |xxxxxxxxxxxxx |xxxxxxxxxxxxx |      <error: |      <error: |      <error: |xxxxxxxxxxxxx |xxxxxxxxxxxxx |xxxxxxxxxxxxx |xxxxxxxxxxxxx |      <error: |      <error: |      <error: |xxxxxxxxxxxxx |xxxxxxxxxxxxx |xxxxxxxxxxxxx |xxxxxxxxxxxxx |      <error: |      <error: |      <error: |xxxxxxxxxxxxx |xxxxxxxxxxxxx |xxxxxxxxxxxxx |xxxxxxxxxxxxx |      <error: |      <error: |      <error: |xxxxxxxxxxxxx |xxxxxxxxxxxxx |xxxxxxxxxxxxx |xxxxxxxxxxxxx |      <error: |      <error: |      <error: |xxxxxxxxxxxxx |xxxxxxxxxxxxx |xxxxxxxxxxxxx |xxxxxxxxxxxxx |       0.0000 |       0.0000 |       0.0000 |xxxxxxxxxxxxx |xxxxxxxxxxxxx |xxxxxxxxxxxxx |xxxxxxxxxxxxx |       0.0000 |       0.0000 |       0.0000 |
bpred_bimod.retstack_pushes                     67 |           67 |           67 |xxxxxxxxxxxxx |xxxxxxxxxxxxx |xxxxxxxxxxxxx |xxxxxxxxxxxxx |           67 |           67 |           67 |xxxxxxxxxxxxx |xxxxxxxxxxxxx |xxxxxxxxxxxxx |xxxxxxxxxxxxx |           67 |           67 |           67 |xxxxxxxxxxxxx |xxxxxxxxxxxxx |xxxxxxxxxxxxx |xxxxxxxxxxxxx |           67 |           67 |           67 |xxxxxxxxxxxxx |xxxxxxxxxxxxx |xxxxxxxxxxxxx |xxxxxxxxxxxxx |           67 |           67 |           67 |xxxxxxxxxxxxx |xxxxxxxxxxxxx |xxxxxxxxxxxxx |xxxxxxxxxxxxx |           67 |           67 |           67 |xxxxxxxxxxxxx |xxxxxxxxxxxxx |xxxxxxxxxxxxx |xxxxxxxxxxxxx |           67 |           67 |           67 |xxxxxxxxxxxxx |xxxxxxxxxxxxx |xxxxxxxxxxxxx |xxxxxxxxxxxxx |           67 |           67 |           67 |xxxxxxxxxxxxx |xxxxxxxxxxxxx |xxxxxxxxxxxxx |xxxxxxxxxxxxx |           67 |           67 |           67 |xxxxxxxxxxxxx |xxxxxxxxxxxxx |xxxxxxxxxxxxx |xxxxxxxxxxxxx |          112 |          112 |          112 |xxxxxxxxxxxxx |xxxxxxxxxxxxx |xxxxxxxxxxxxx |xxxxxxxxxxxxx |          124 |          124 |          124 |
bpred_bimod.retstack_pops                       65 |           65 |           65 |xxxxxxxxxxxxx |xxxxxxxxxxxxx |xxxxxxxxxxxxx |xxxxxxxxxxxxx |           65 |           65 |           65 |xxxxxxxxxxxxx |xxxxxxxxxxxxx |xxxxxxxxxxxxx |xxxxxxxxxxxxx |           65 |           65 |           65 |xxxxxxxxxxxxx |xxxxxxxxxxxxx |xxxxxxxxxxxxx |xxxxxxxxxxxxx |           65 |           65 |           65 |xxxxxxxxxxxxx |xxxxxxxxxxxxx |xxxxxxxxxxxxx |xxxxxxxxxxxxx |           65 |           65 |           65 |xxxxxxxxxxxxx |xxxxxxxxxxxxx |xxxxxxxxxxxxx |xxxxxxxxxxxxx |           65 |           65 |           65 |xxxxxxxxxxxxx |xxxxxxxxxxxxx |xxxxxxxxxxxxx |xxxxxxxxxxxxx |           65 |           65 |           65 |xxxxxxxxxxxxx |xxxxxxxxxxxxx |xxxxxxxxxxxxx |xxxxxxxxxxxxx |           65 |           65 |           65 |xxxxxxxxxxxxx |xxxxxxxxxxxxx |xxxxxxxxxxxxx |xxxxxxxxxxxxx |           65 |           65 |           65 |xxxxxxxxxxxxx |xxxxxxxxxxxxx |xxxxxxxxxxxxx |xxxxxxxxxxxxx |          110 |          110 |          110 |xxxxxxxxxxxxx |xxxxxxxxxxxxx |xxxxxxxxxxxxx |xxxxxxxxxxxxx |          122 |          122 |          122 |
bpred_bimod.used_ras.PP                         65 |           65 |           65 |xxxxxxxxxxxxx |xxxxxxxxxxxxx |xxxxxxxxxxxxx |xxxxxxxxxxxxx |           65 |           65 |           65 |xxxxxxxxxxxxx |xxxxxxxxxxxxx |xxxxxxxxxxxxx |xxxxxxxxxxxxx |           65 |           65 |           65 |xxxxxxxxxxxxx |xxxxxxxxxxxxx |xxxxxxxxxxxxx |xxxxxxxxxxxxx |           65 |           65 |           65 |xxxxxxxxxxxxx |xxxxxxxxxxxxx |xxxxxxxxxxxxx |xxxxxxxxxxxxx |           65 |           65 |           65 |xxxxxxxxxxxxx |xxxxxxxxxxxxx |xxxxxxxxxxxxx |xxxxxxxxxxxxx |           65 |           65 |           65 |xxxxxxxxxxxxx |xxxxxxxxxxxxx |xxxxxxxxxxxxx |xxxxxxxxxxxxx |           65 |           65 |           65 |xxxxxxxxxxxxx |xxxxxxxxxxxxx |xxxxxxxxxxxxx |xxxxxxxxxxxxx |           65 |           65 |           65 |xxxxxxxxxxxxx |xxxxxxxxxxxxx |xxxxxxxxxxxxx |xxxxxxxxxxxxx |           65 |           65 |           65 |xxxxxxxxxxxxx |xxxxxxxxxxxxx |xxxxxxxxxxxxx |xxxxxxxxxxxxx |          110 |          110 |          110 |xxxxxxxxxxxxx |xxxxxxxxxxxxx |xxxxxxxxxxxxx |xxxxxxxxxxxxx |          122 |          122 |          122 |
bpred_bimod.ras_hits.PP                         65 |           65 |           65 |xxxxxxxxxxxxx |xxxxxxxxxxxxx |xxxxxxxxxxxxx |xxxxxxxxxxxxx |           65 |           65 |           65 |xxxxxxxxxxxxx |xxxxxxxxxxxxx |xxxxxxxxxxxxx |xxxxxxxxxxxxx |           65 |           65 |           65 |xxxxxxxxxxxxx |xxxxxxxxxxxxx |xxxxxxxxxxxxx |xxxxxxxxxxxxx |           65 |           65 |           65 |xxxxxxxxxxxxx |xxxxxxxxxxxxx |xxxxxxxxxxxxx |xxxxxxxxxxxxx |           65 |           65 |           65 |xxxxxxxxxxxxx |xxxxxxxxxxxxx |xxxxxxxxxxxxx |xxxxxxxxxxxxx |           65 |           65 |           65 |xxxxxxxxxxxxx |xxxxxxxxxxxxx |xxxxxxxxxxxxx |xxxxxxxxxxxxx |           65 |           65 |           65 |xxxxxxxxxxxxx |xxxxxxxxxxxxx |xxxxxxxxxxxxx |xxxxxxxxxxxxx |           65 |           65 |           65 |xxxxxxxxxxxxx |xxxxxxxxxxxxx |xxxxxxxxxxxxx |xxxxxxxxxxxxx |           65 |           65 |           65 |xxxxxxxxxxxxx |xxxxxxxxxxxxx |xxxxxxxxxxxxx |xxxxxxxxxxxxx |          110 |          110 |          110 |xxxxxxxxxxxxx |xxxxxxxxxxxxx |xxxxxxxxxxxxx |xxxxxxxxxxxxx |          122 |          122 |          122 |
bpred_bimod.ras_rate.PP                     1.0000 |       1.0000 |       1.0000 |xxxxxxxxxxxxx |xxxxxxxxxxxxx |xxxxxxxxxxxxx |xxxxxxxxxxxxx |       1.0000 |       1.0000 |       1.0000 |xxxxxxxxxxxxx |xxxxxxxxxxxxx |xxxxxxxxxxxxx |xxxxxxxxxxxxx |       1.0000 |       1.0000 |       1.0000 |xxxxxxxxxxxxx |xxxxxxxxxxxxx |xxxxxxxxxxxxx |xxxxxxxxxxxxx |       1.0000 |       1.0000 |       1.0000 |xxxxxxxxxxxxx |xxxxxxxxxxxxx |xxxxxxxxxxxxx |xxxxxxxxxxxxx |       1.0000 |       1.0000 |       1.0000 |xxxxxxxxxxxxx |xxxxxxxxxxxxx |xxxxxxxxxxxxx |xxxxxxxxxxxxx |       1.0000 |       1.0000 |       1.0000 |xxxxxxxxxxxxx |xxxxxxxxxxxxx |xxxxxxxxxxxxx |xxxxxxxxxxxxx |       1.0000 |       1.0000 |       1.0000 |xxxxxxxxxxxxx |xxxxxxxxxxxxx |xxxxxxxxxxxxx |xxxxxxxxxxxxx |       1.0000 |       1.0000 |       1.0000 |xxxxxxxxxxxxx |xxxxxxxxxxxxx |xxxxxxxxxxxxx |xxxxxxxxxxxxx |       1.0000 |       1.0000 |       1.0000 |xxxxxxxxxxxxx |xxxxxxxxxxxxx |xxxxxxxxxxxxx |xxxxxxxxxxxxx |       1.0000 |       1.0000 |       1.0000 |xxxxxxxxxxxxx |xxxxxxxxxxxxx |xxxxxxxxxxxxx |xxxxxxxxxxxxx |       1.0000 |       1.0000 |       1.0000 |
bpred_2lev.lookups                   xxxxxxxxxxxxx |xxxxxxxxxxxxx |xxxxxxxxxxxxx |        77448 |        77448 |        77448 |        77448 |xxxxxxxxxxxxx |xxxxxxxxxxxxx |xxxxxxxxxxxxx |       166188 |       166188 |       166188 |       166188 |xxxxxxxxxxxxx |xxxxxxxxxxxxx |xxxxxxxxxxxxx |       358706 |       358706 |       358706 |       358706 |xxxxxxxxxxxxx |xxxxxxxxxxxxx |xxxxxxxxxxxxx |       778886 |       778886 |       778886 |       778886 |xxxxxxxxxxxxx |xxxxxxxxxxxxx |xxxxxxxxxxxxx |      1646413 |      1646413 |      1646413 |      1646413 |xxxxxxxxxxxxx |xxxxxxxxxxxxx |xxxxxxxxxxxxx |      3512820 |      3512820 |      3512820 |      3512820 |xxxxxxxxxxxxx |xxxxxxxxxxxxx |xxxxxxxxxxxxx |      7423137 |      7423137 |      7423137 |      7423137 |xxxxxxxxxxxxx |xxxxxxxxxxxxx |xxxxxxxxxxxxx |     15553387 |     15553387 |     15553387 |     15553387 |xxxxxxxxxxxxx |xxxxxxxxxxxxx |xxxxxxxxxxxxx |     33195749 |     33195749 |     33195749 |     33195749 |xxxxxxxxxxxxx |xxxxxxxxxxxxx |xxxxxxxxxxxxx |    103901494 |    103901494 |    103901494 |    103901494 |xxxxxxxxxxxxx |xxxxxxxxxxxxx |xxxxxxxxxxxxx |    280066865 |    280066865 |    280066865 |    280066865 |
[...]
bpred_2lev.retstack_pops             xxxxxxxxxxxxx |xxxxxxxxxxxxx |xxxxxxxxxxxxx |           65 |           65 |           65 |           65 |xxxxxxxxxxxxx |xxxxxxxxxxxxx |xxxxxxxxxxxxx |           65 |           65 |           65 |           65 |xxxxxxxxxxxxx |xxxxxxxxxxxxx |xxxxxxxxxxxxx |           65 |           65 |           65 |           65 |xxxxxxxxxxxxx |xxxxxxxxxxxxx |xxxxxxxxxxxxx |           65 |           65 |           65 |           65 |xxxxxxxxxxxxx |xxxxxxxxxxxxx |xxxxxxxxxxxxx |           65 |           65 |           65 |           65 |xxxxxxxxxxxxx |xxxxxxxxxxxxx |xxxxxxxxxxxxx |           65 |           65 |           65 |           65 |xxxxxxxxxxxxx |xxxxxxxxxxxxx |xxxxxxxxxxxxx |           65 |           65 |           65 |           65 |xxxxxxxxxxxxx |xxxxxxxxxxxxx |xxxxxxxxxxxxx |           65 |           65 |           65 |           65 |xxxxxxxxxxxxx |xxxxxxxxxxxxx |xxxxxxxxxxxxx |           65 |           65 |           65 |           65 |xxxxxxxxxxxxx |xxxxxxxxxxxxx |xxxxxxxxxxxxx |          110 |          110 |          110 |          110 |xxxxxxxxxxxxx |xxxxxxxxxxxxx |xxxxxxxxxxxxx |          122 |          122 |          122 |          122 |
bpred_2lev.used_ras.PP               xxxxxxxxxxxxx |xxxxxxxxxxxxx |xxxxxxxxxxxxx |           65 |           65 |           65 |           65 |xxxxxxxxxxxxx |xxxxxxxxxxxxx |xxxxxxxxxxxxx |           65 |           65 |           65 |           65 |xxxxxxxxxxxxx |xxxxxxxxxxxxx |xxxxxxxxxxxxx |           65 |           65 |           65 |           65 |xxxxxxxxxxxxx |xxxxxxxxxxxxx |xxxxxxxxxxxxx |           65 |           65 |           65 |           65 |xxxxxxxxxxxxx |xxxxxxxxxxxxx |xxxxxxxxxxxxx |           65 |           65 |           65 |           65 |xxxxxxxxxxxxx |xxxxxxxxxxxxx |xxxxxxxxxxxxx |           65 |           65 |           65 |           65 |xxxxxxxxxxxxx |xxxxxxxxxxxxx |xxxxxxxxxxxxx |           65 |           65 |           65 |           65 |xxxxxxxxxxxxx |xxxxxxxxxxxxx |xxxxxxxxxxxxx |           65 |           65 |           65 |           65 |xxxxxxxxxxxxx |xxxxxxxxxxxxx |xxxxxxxxxxxxx |           65 |           65 |           65 |           65 |xxxxxxxxxxxxx |xxxxxxxxxxxxx |xxxxxxxxxxxxx |          110 |          110 |          110 |          110 |xxxxxxxxxxxxx |xxxxxxxxxxxxx |xxxxxxxxxxxxx |          122 |          122 |          122 |          122 |
bpred_2lev.ras_hits.PP               xxxxxxxxxxxxx |xxxxxxxxxxxxx |xxxxxxxxxxxxx |           65 |           65 |           65 |           65 |xxxxxxxxxxxxx |xxxxxxxxxxxxx |xxxxxxxxxxxxx |           65 |           65 |           65 |           65 |xxxxxxxxxxxxx |xxxxxxxxxxxxx |xxxxxxxxxxxxx |           65 |           65 |           65 |           65 |xxxxxxxxxxxxx |xxxxxxxxxxxxx |xxxxxxxxxxxxx |           65 |           65 |           65 |           65 |xxxxxxxxxxxxx |xxxxxxxxxxxxx |xxxxxxxxxxxxx |           65 |           65 |           65 |           65 |xxxxxxxxxxxxx |xxxxxxxxxxxxx |xxxxxxxxxxxxx |           65 |           65 |           65 |           65 |xxxxxxxxxxxxx |xxxxxxxxxxxxx |xxxxxxxxxxxxx |           65 |           65 |           65 |           65 |xxxxxxxxxxxxx |xxxxxxxxxxxxx |xxxxxxxxxxxxx |           65 |           65 |           65 |           65 |xxxxxxxxxxxxx |xxxxxxxxxxxxx |xxxxxxxxxxxxx |           65 |           65 |           65 |           65 |xxxxxxxxxxxxx |xxxxxxxxxxxxx |xxxxxxxxxxxxx |          110 |          110 |          110 |          110 |xxxxxxxxxxxxx |xxxxxxxxxxxxx |xxxxxxxxxxxxx |          122 |          122 |          122 |          122 |
bpred_2lev.ras_rate.PP               xxxxxxxxxxxxx |xxxxxxxxxxxxx |xxxxxxxxxxxxx |       1.0000 |       1.0000 |       1.0000 |       1.0000 |xxxxxxxxxxxxx |xxxxxxxxxxxxx |xxxxxxxxxxxxx |       1.0000 |       1.0000 |       1.0000 |       1.0000 |xxxxxxxxxxxxx |xxxxxxxxxxxxx |xxxxxxxxxxxxx |       1.0000 |       1.0000 |       1.0000 |       1.0000 |xxxxxxxxxxxxx |xxxxxxxxxxxxx |xxxxxxxxxxxxx |       1.0000 |       1.0000 |       1.0000 |       1.0000 |xxxxxxxxxxxxx |xxxxxxxxxxxxx |xxxxxxxxxxxxx |       1.0000 |       1.0000 |       1.0000 |       1.0000 |xxxxxxxxxxxxx |xxxxxxxxxxxxx |xxxxxxxxxxxxx |       1.0000 |       1.0000 |       1.0000 |       1.0000 |xxxxxxxxxxxxx |xxxxxxxxxxxxx |xxxxxxxxxxxxx |       1.0000 |       1.0000 |       1.0000 |       1.0000 |xxxxxxxxxxxxx |xxxxxxxxxxxxx |xxxxxxxxxxxxx |       1.0000 |       1.0000 |       1.0000 |       1.0000 |xxxxxxxxxxxxx |xxxxxxxxxxxxx |xxxxxxxxxxxxx |       1.0000 |       1.0000 |       1.0000 |       1.0000 |xxxxxxxxxxxxx |xxxxxxxxxxxxx |xxxxxxxxxxxxx |       1.0000 |       1.0000 |       1.0000 |       1.0000 |xxxxxxxxxxxxx |xxxxxxxxxxxxx |xxxxxxxxxxxxx |       1.0000 |       1.0000 |       1.0000 |       1.0000 |

Command list: 
	sslittle-na-sstrix-gcc -Wall -O3 -funroll-loops -finline-functions  -DRANDOM_SIZE=4096 -DOFFSET=5 -DSORT=multi_quicksort_seq sorts/multi_quicksort_seq1646908206.c simpleMain.c -o multi_quicksort_seq1606002816
	sim-cache -cache:dl1 dl1:256:32:1:l -cache:dl2 dl2:131072:32:1:l -cache:il1 il1:256:32:1:l -cache:il2 dl2 multi_quicksort_seq1606002816
	sim-cache -cache:dl1 dl1:256:32:1:l -cache:dl2 dl2:65536:32:1:l -cache:il1 il1:256:32:1:l -cache:il2 dl2 multi_quicksort_seq1606002816
	sim-cache -cache:dl1 dl1:1:32:256:l -cache:dl2 dl2:1:32:131072:l -cache:il1 il1:1:32:256:l -cache:il2 dl2 multi_quicksort_seq1606002816
	sim-cache -cache:dl1 dl1:1:32:256:l -cache:dl2 dl2:1:32:65536:l -cache:il1 il1:1:32:256:l -cache:il2 dl2 multi_quicksort_seq1606002816
	sim-bpred -bpred bimod -bpred:bimod 512 multi_quicksort_seq1606002816
	sim-bpred -bpred bimod -bpred:bimod 1024 multi_quicksort_seq1606002816
	sim-bpred -bpred bimod -bpred:bimod 2048 multi_quicksort_seq1606002816
	sim-bpred -bpred 2lev -bpred:2lev 1 512 10 1 multi_quicksort_seq1606002816
	sim-bpred -bpred 2lev -bpred:2lev 1 1024 10 1 multi_quicksort_seq1606002816
	sim-bpred -bpred 2lev -bpred:2lev 1 2048 10 1 multi_quicksort_seq1606002816
	sim-bpred -bpred 2lev -bpred:2lev 1 4096 10 1 multi_quicksort_seq1606002816
	sslittle-na-sstrix-gcc -Wall -O3 -funroll-loops -finline-functions  -DRANDOM_SIZE=8192 -DOFFSET=5 -DSORT=multi_quicksort_seq sorts/multi_quicksort_seq1646908206.c simpleMain.c -o multi_quicksort_seq1606002816
	sim-cache -cache:dl1 dl1:256:32:1:l -cache:dl2 dl2:131072:32:1:l -cache:il1 il1:256:32:1:l -cache:il2 dl2 multi_quicksort_seq1606002816
	sim-cache -cache:dl1 dl1:256:32:1:l -cache:dl2 dl2:65536:32:1:l -cache:il1 il1:256:32:1:l -cache:il2 dl2 multi_quicksort_seq1606002816
	sim-cache -cache:dl1 dl1:1:32:256:l -cache:dl2 dl2:1:32:131072:l -cache:il1 il1:1:32:256:l -cache:il2 dl2 multi_quicksort_seq1606002816
	sim-cache -cache:dl1 dl1:1:32:256:l -cache:dl2 dl2:1:32:65536:l -cache:il1 il1:1:32:256:l -cache:il2 dl2 multi_quicksort_seq1606002816
	sim-bpred -bpred bimod -bpred:bimod 512 multi_quicksort_seq1606002816
	sim-bpred -bpred bimod -bpred:bimod 1024 multi_quicksort_seq1606002816
	sim-bpred -bpred bimod -bpred:bimod 2048 multi_quicksort_seq1606002816
	sim-bpred -bpred 2lev -bpred:2lev 1 512 10 1 multi_quicksort_seq1606002816
	sim-bpred -bpred 2lev -bpred:2lev 1 1024 10 1 multi_quicksort_seq1606002816
	sim-bpred -bpred 2lev -bpred:2lev 1 2048 10 1 multi_quicksort_seq1606002816
	sim-bpred -bpred 2lev -bpred:2lev 1 4096 10 1 multi_quicksort_seq1606002816
	sslittle-na-sstrix-gcc -Wall -O3 -funroll-loops -finline-functions  -DRANDOM_SIZE=16384 -DOFFSET=5 -DSORT=multi_quicksort_seq sorts/multi_quicksort_seq1646908206.c simpleMain.c -o multi_quicksort_seq1606002816
	sim-cache -cache:dl1 dl1:256:32:1:l -cache:dl2 dl2:131072:32:1:l -cache:il1 il1:256:32:1:l -cache:il2 dl2 multi_quicksort_seq1606002816
	sim-cache -cache:dl1 dl1:256:32:1:l -cache:dl2 dl2:65536:32:1:l -cache:il1 il1:256:32:1:l -cache:il2 dl2 multi_quicksort_seq1606002816
	sim-cache -cache:dl1 dl1:1:32:256:l -cache:dl2 dl2:1:32:131072:l -cache:il1 il1:1:32:256:l -cache:il2 dl2 multi_quicksort_seq1606002816
	sim-cache -cache:dl1 dl1:1:32:256:l -cache:dl2 dl2:1:32:65536:l -cache:il1 il1:1:32:256:l -cache:il2 dl2 multi_quicksort_seq1606002816
	sim-bpred -bpred bimod -bpred:bimod 512 multi_quicksort_seq1606002816
	sim-bpred -bpred bimod -bpred:bimod 1024 multi_quicksort_seq1606002816
	sim-bpred -bpred bimod -bpred:bimod 2048 multi_quicksort_seq1606002816
	sim-bpred -bpred 2lev -bpred:2lev 1 512 10 1 multi_quicksort_seq1606002816
	sim-bpred -bpred 2lev -bpred:2lev 1 1024 10 1 multi_quicksort_seq1606002816
	sim-bpred -bpred 2lev -bpred:2lev 1 2048 10 1 multi_quicksort_seq1606002816
	sim-bpred -bpred 2lev -bpred:2lev 1 4096 10 1 multi_quicksort_seq1606002816
	sslittle-na-sstrix-gcc -Wall -O3 -funroll-loops -finline-functions  -DRANDOM_SIZE=32768 -DOFFSET=5 -DSORT=multi_quicksort_seq sorts/multi_quicksort_seq1646908206.c simpleMain.c -o multi_quicksort_seq1606002816
	sim-cache -cache:dl1 dl1:256:32:1:l -cache:dl2 dl2:131072:32:1:l -cache:il1 il1:256:32:1:l -cache:il2 dl2 multi_quicksort_seq1606002816
	sim-cache -cache:dl1 dl1:256:32:1:l -cache:dl2 dl2:65536:32:1:l -cache:il1 il1:256:32:1:l -cache:il2 dl2 multi_quicksort_seq1606002816
	sim-cache -cache:dl1 dl1:1:32:256:l -cache:dl2 dl2:1:32:131072:l -cache:il1 il1:1:32:256:l -cache:il2 dl2 multi_quicksort_seq1606002816
	sim-cache -cache:dl1 dl1:1:32:256:l -cache:dl2 dl2:1:32:65536:l -cache:il1 il1:1:32:256:l -cache:il2 dl2 multi_quicksort_seq1606002816
	sim-bpred -bpred bimod -bpred:bimod 512 multi_quicksort_seq1606002816
	sim-bpred -bpred bimod -bpred:bimod 1024 multi_quicksort_seq1606002816
	sim-bpred -bpred bimod -bpred:bimod 2048 multi_quicksort_seq1606002816
	sim-bpred -bpred 2lev -bpred:2lev 1 512 10 1 multi_quicksort_seq1606002816
	sim-bpred -bpred 2lev -bpred:2lev 1 1024 10 1 multi_quicksort_seq1606002816
	sim-bpred -bpred 2lev -bpred:2lev 1 2048 10 1 multi_quicksort_seq1606002816
	sim-bpred -bpred 2lev -bpred:2lev 1 4096 10 1 multi_quicksort_seq1606002816
	sslittle-na-sstrix-gcc -Wall -O3 -funroll-loops -finline-functions  -DRANDOM_SIZE=65536 -DOFFSET=5 -DSORT=multi_quicksort_seq sorts/multi_quicksort_seq1646908206.c simpleMain.c -o multi_quicksort_seq1606002816
	sim-cache -cache:dl1 dl1:256:32:1:l -cache:dl2 dl2:131072:32:1:l -cache:il1 il1:256:32:1:l -cache:il2 dl2 multi_quicksort_seq1606002816
	sim-cache -cache:dl1 dl1:256:32:1:l -cache:dl2 dl2:65536:32:1:l -cache:il1 il1:256:32:1:l -cache:il2 dl2 multi_quicksort_seq1606002816
	sim-cache -cache:dl1 dl1:1:32:256:l -cache:dl2 dl2:1:32:131072:l -cache:il1 il1:1:32:256:l -cache:il2 dl2 multi_quicksort_seq1606002816
	sim-cache -cache:dl1 dl1:1:32:256:l -cache:dl2 dl2:1:32:65536:l -cache:il1 il1:1:32:256:l -cache:il2 dl2 multi_quicksort_seq1606002816
	sim-bpred -bpred bimod -bpred:bimod 512 multi_quicksort_seq1606002816
	sim-bpred -bpred bimod -bpred:bimod 1024 multi_quicksort_seq1606002816
	sim-bpred -bpred bimod -bpred:bimod 2048 multi_quicksort_seq1606002816
	sim-bpred -bpred 2lev -bpred:2lev 1 512 10 1 multi_quicksort_seq1606002816
	sim-bpred -bpred 2lev -bpred:2lev 1 1024 10 1 multi_quicksort_seq1606002816
	sim-bpred -bpred 2lev -bpred:2lev 1 2048 10 1 multi_quicksort_seq1606002816
	sim-bpred -bpred 2lev -bpred:2lev 1 4096 10 1 multi_quicksort_seq1606002816
	sslittle-na-sstrix-gcc -Wall -O3 -funroll-loops -finline-functions  -DRANDOM_SIZE=131072 -DOFFSET=5 -DSORT=multi_quicksort_seq sorts/multi_quicksort_seq1646908206.c simpleMain.c -o multi_quicksort_seq1606002816
	sim-cache -cache:dl1 dl1:256:32:1:l -cache:dl2 dl2:131072:32:1:l -cache:il1 il1:256:32:1:l -cache:il2 dl2 multi_quicksort_seq1606002816
	sim-cache -cache:dl1 dl1:256:32:1:l -cache:dl2 dl2:65536:32:1:l -cache:il1 il1:256:32:1:l -cache:il2 dl2 multi_quicksort_seq1606002816
	sim-cache -cache:dl1 dl1:1:32:256:l -cache:dl2 dl2:1:32:131072:l -cache:il1 il1:1:32:256:l -cache:il2 dl2 multi_quicksort_seq1606002816
	sim-cache -cache:dl1 dl1:1:32:256:l -cache:dl2 dl2:1:32:65536:l -cache:il1 il1:1:32:256:l -cache:il2 dl2 multi_quicksort_seq1606002816
	sim-bpred -bpred bimod -bpred:bimod 512 multi_quicksort_seq1606002816
	sim-bpred -bpred bimod -bpred:bimod 1024 multi_quicksort_seq1606002816
	sim-bpred -bpred bimod -bpred:bimod 2048 multi_quicksort_seq1606002816
	sim-bpred -bpred 2lev -bpred:2lev 1 512 10 1 multi_quicksort_seq1606002816
	sim-bpred -bpred 2lev -bpred:2lev 1 1024 10 1 multi_quicksort_seq1606002816
	sim-bpred -bpred 2lev -bpred:2lev 1 2048 10 1 multi_quicksort_seq1606002816
	sim-bpred -bpred 2lev -bpred:2lev 1 4096 10 1 multi_quicksort_seq1606002816
	sslittle-na-sstrix-gcc -Wall -O3 -funroll-loops -finline-functions  -DRANDOM_SIZE=262144 -DOFFSET=5 -DSORT=multi_quicksort_seq sorts/multi_quicksort_seq1646908206.c simpleMain.c -o multi_quicksort_seq1606002816
	sim-cache -cache:dl1 dl1:256:32:1:l -cache:dl2 dl2:131072:32:1:l -cache:il1 il1:256:32:1:l -cache:il2 dl2 multi_quicksort_seq1606002816
	sim-cache -cache:dl1 dl1:256:32:1:l -cache:dl2 dl2:65536:32:1:l -cache:il1 il1:256:32:1:l -cache:il2 dl2 multi_quicksort_seq1606002816
	sim-cache -cache:dl1 dl1:1:32:256:l -cache:dl2 dl2:1:32:131072:l -cache:il1 il1:1:32:256:l -cache:il2 dl2 multi_quicksort_seq1606002816
	sim-cache -cache:dl1 dl1:1:32:256:l -cache:dl2 dl2:1:32:65536:l -cache:il1 il1:1:32:256:l -cache:il2 dl2 multi_quicksort_seq1606002816
	sim-bpred -bpred bimod -bpred:bimod 512 multi_quicksort_seq1606002816
	sim-bpred -bpred bimod -bpred:bimod 1024 multi_quicksort_seq1606002816
	sim-bpred -bpred bimod -bpred:bimod 2048 multi_quicksort_seq1606002816
	sim-bpred -bpred 2lev -bpred:2lev 1 512 10 1 multi_quicksort_seq1606002816
	sim-bpred -bpred 2lev -bpred:2lev 1 1024 10 1 multi_quicksort_seq1606002816
	sim-bpred -bpred 2lev -bpred:2lev 1 2048 10 1 multi_quicksort_seq1606002816
	sim-bpred -bpred 2lev -bpred:2lev 1 4096 10 1 multi_quicksort_seq1606002816
	sslittle-na-sstrix-gcc -Wall -O3 -funroll-loops -finline-functions  -DRANDOM_SIZE=524288 -DOFFSET=5 -DSORT=multi_quicksort_seq sorts/multi_quicksort_seq1646908206.c simpleMain.c -o multi_quicksort_seq1606002816
	sim-cache -cache:dl1 dl1:256:32:1:l -cache:dl2 dl2:131072:32:1:l -cache:il1 il1:256:32:1:l -cache:il2 dl2 multi_quicksort_seq1606002816
	sim-cache -cache:dl1 dl1:256:32:1:l -cache:dl2 dl2:65536:32:1:l -cache:il1 il1:256:32:1:l -cache:il2 dl2 multi_quicksort_seq1606002816
	sim-cache -cache:dl1 dl1:1:32:256:l -cache:dl2 dl2:1:32:131072:l -cache:il1 il1:1:32:256:l -cache:il2 dl2 multi_quicksort_seq1606002816
	sim-cache -cache:dl1 dl1:1:32:256:l -cache:dl2 dl2:1:32:65536:l -cache:il1 il1:1:32:256:l -cache:il2 dl2 multi_quicksort_seq1606002816
	sim-bpred -bpred bimod -bpred:bimod 512 multi_quicksort_seq1606002816
	sim-bpred -bpred bimod -bpred:bimod 1024 multi_quicksort_seq1606002816
	sim-bpred -bpred bimod -bpred:bimod 2048 multi_quicksort_seq1606002816
	sim-bpred -bpred 2lev -bpred:2lev 1 512 10 1 multi_quicksort_seq1606002816
	sim-bpred -bpred 2lev -bpred:2lev 1 1024 10 1 multi_quicksort_seq1606002816
	sim-bpred -bpred 2lev -bpred:2lev 1 2048 10 1 multi_quicksort_seq1606002816
	sim-bpred -bpred 2lev -bpred:2lev 1 4096 10 1 multi_quicksort_seq1606002816
	sslittle-na-sstrix-gcc -Wall -O3 -funroll-loops -finline-functions  -DRANDOM_SIZE=1048576 -DOFFSET=5 -DSORT=multi_quicksort_seq sorts/multi_quicksort_seq1646908206.c simpleMain.c -o multi_quicksort_seq1606002816
	sim-cache -cache:dl1 dl1:256:32:1:l -cache:dl2 dl2:131072:32:1:l -cache:il1 il1:256:32:1:l -cache:il2 dl2 multi_quicksort_seq1606002816
	sim-cache -cache:dl1 dl1:256:32:1:l -cache:dl2 dl2:65536:32:1:l -cache:il1 il1:256:32:1:l -cache:il2 dl2 multi_quicksort_seq1606002816
	sim-cache -cache:dl1 dl1:1:32:256:l -cache:dl2 dl2:1:32:131072:l -cache:il1 il1:1:32:256:l -cache:il2 dl2 multi_quicksort_seq1606002816
	sim-cache -cache:dl1 dl1:1:32:256:l -cache:dl2 dl2:1:32:65536:l -cache:il1 il1:1:32:256:l -cache:il2 dl2 multi_quicksort_seq1606002816
	sim-bpred -bpred bimod -bpred:bimod 512 multi_quicksort_seq1606002816
	sim-bpred -bpred bimod -bpred:bimod 1024 multi_quicksort_seq1606002816
	sim-bpred -bpred bimod -bpred:bimod 2048 multi_quicksort_seq1606002816
	sim-bpred -bpred 2lev -bpred:2lev 1 512 10 1 multi_quicksort_seq1606002816
	sim-bpred -bpred 2lev -bpred:2lev 1 1024 10 1 multi_quicksort_seq1606002816
	sim-bpred -bpred 2lev -bpred:2lev 1 2048 10 1 multi_quicksort_seq1606002816
	sim-bpred -bpred 2lev -bpred:2lev 1 4096 10 1 multi_quicksort_seq1606002816
	sslittle-na-sstrix-gcc -Wall -O3 -funroll-loops -finline-functions  -DRANDOM_SIZE=2097152 -DOFFSET=5 -DSORT=multi_quicksort_seq sorts/multi_quicksort_seq1646908206.c simpleMain.c -o multi_quicksort_seq1606002816
	sim-cache -cache:dl1 dl1:256:32:1:l -cache:dl2 dl2:131072:32:1:l -cache:il1 il1:256:32:1:l -cache:il2 dl2 multi_quicksort_seq1606002816
	sim-cache -cache:dl1 dl1:256:32:1:l -cache:dl2 dl2:65536:32:1:l -cache:il1 il1:256:32:1:l -cache:il2 dl2 multi_quicksort_seq1606002816
	sim-cache -cache:dl1 dl1:1:32:256:l -cache:dl2 dl2:1:32:131072:l -cache:il1 il1:1:32:256:l -cache:il2 dl2 multi_quicksort_seq1606002816
	sim-cache -cache:dl1 dl1:1:32:256:l -cache:dl2 dl2:1:32:65536:l -cache:il1 il1:1:32:256:l -cache:il2 dl2 multi_quicksort_seq1606002816
	sim-bpred -bpred bimod -bpred:bimod 512 multi_quicksort_seq1606002816
	sim-bpred -bpred bimod -bpred:bimod 1024 multi_quicksort_seq1606002816
	sim-bpred -bpred bimod -bpred:bimod 2048 multi_quicksort_seq1606002816
	sim-bpred -bpred 2lev -bpred:2lev 1 512 10 1 multi_quicksort_seq1606002816
	sim-bpred -bpred 2lev -bpred:2lev 1 1024 10 1 multi_quicksort_seq1606002816
	sim-bpred -bpred 2lev -bpred:2lev 1 2048 10 1 multi_quicksort_seq1606002816
	sim-bpred -bpred 2lev -bpred:2lev 1 4096 10 1 multi_quicksort_seq1606002816
	sslittle-na-sstrix-gcc -Wall -O3 -funroll-loops -finline-functions  -DRANDOM_SIZE=4194304 -DOFFSET=5 -DSORT=multi_quicksort_seq sorts/multi_quicksort_seq1646908206.c simpleMain.c -o multi_quicksort_seq1606002816
	sim-cache -cache:dl1 dl1:256:32:1:l -cache:dl2 dl2:131072:32:1:l -cache:il1 il1:256:32:1:l -cache:il2 dl2 multi_quicksort_seq1606002816
	sim-cache -cache:dl1 dl1:256:32:1:l -cache:dl2 dl2:65536:32:1:l -cache:il1 il1:256:32:1:l -cache:il2 dl2 multi_quicksort_seq1606002816
	sim-cache -cache:dl1 dl1:1:32:256:l -cache:dl2 dl2:1:32:131072:l -cache:il1 il1:1:32:256:l -cache:il2 dl2 multi_quicksort_seq1606002816
	sim-cache -cache:dl1 dl1:1:32:256:l -cache:dl2 dl2:1:32:65536:l -cache:il1 il1:1:32:256:l -cache:il2 dl2 multi_quicksort_seq1606002816
	sim-bpred -bpred bimod -bpred:bimod 512 multi_quicksort_seq1606002816
	sim-bpred -bpred bimod -bpred:bimod 1024 multi_quicksort_seq1606002816
	sim-bpred -bpred bimod -bpred:bimod 2048 multi_quicksort_seq1606002816
	sim-bpred -bpred 2lev -bpred:2lev 1 512 10 1 multi_quicksort_seq1606002816
	sim-bpred -bpred 2lev -bpred:2lev 1 1024 10 1 multi_quicksort_seq1606002816
	sim-bpred -bpred 2lev -bpred:2lev 1 2048 10 1 multi_quicksort_seq1606002816
	sim-bpred -bpred 2lev -bpred:2lev 1 4096 10 1 multi_quicksort_seq1606002816
