Wed Jun 22 19:41:01 2005
Run as: "./do_simple -c random.org1 -o 1 multi_quicksort"
-------------------------------------------------------------------------------------------------
sim-cache                                     4096 |         4096 |         4096 |         4096 |         8192 |         8192 |         8192 |         8192 |        16384 |        16384 |        16384 |        16384 |        32768 |        32768 |        32768 |        32768 |        65536 |        65536 |        65536 |        65536 |       131072 |       131072 |       131072 |       131072 |       262144 |       262144 |       262144 |       262144 |       524288 |       524288 |       524288 |       524288 |      1048576 |      1048576 |      1048576 |      1048576 |      2097152 |      2097152 |      2097152 |      2097152 |      4194304 |      4194304 |      4194304 |      4194304 |
-cache:dl1 dl1:256:32:1:l -cache:dl2 dl2:131072:32:1:l -cache:il1 il1:256:32:1:l -cache:il2 dl2
-cache:dl1 dl1:256:32:1:l -cache:dl2 dl2:65536:32:1:l -cache:il1 il1:256:32:1:l -cache:il2 dl2
-cache:dl1 dl1:1:32:256:l -cache:dl2 dl2:1:32:131072:l -cache:il1 il1:1:32:256:l -cache:il2 dl2
-cache:dl1 dl1:1:32:256:l -cache:dl2 dl2:1:32:65536:l -cache:il1 il1:1:32:256:l -cache:il2 dl2
-------------------------------------------------------------------------------------------------
sim_num_insn                                460596 |       460596 |       460596 |       460596 |       990010 |       990010 |       990010 |       990010 |      2155009 |      2155009 |      2155009 |      2155009 |      4600034 |      4600034 |      4600034 |      4600034 |      9570315 |      9570315 |      9570315 |      9570315 |     20821358 |     20821358 |     20821358 |     20821358 |     43772864 |     43772864 |     43772864 |     43772864 |     91463168 |     91463168 |     91463168 |     91463168 |    196333923 |    196333923 |    196333923 |    196333923 |    623290709 |    623290709 |    623290709 |    623290709 |   1220481435 |   1220481435 |   1220481435 |   1220481435 |
sim_num_refs                                122381 |       122381 |       122381 |       122381 |       258119 |       258119 |       258119 |       258119 |       552299 |       552299 |       552299 |       552299 |      1170541 |      1170541 |      1170541 |      1170541 |      2442759 |      2442759 |      2442759 |      2442759 |      5227845 |      5227845 |      5227845 |      5227845 |     10974571 |     10974571 |     10974571 |     10974571 |     22936577 |     22936577 |     22936577 |     22936577 |     48601608 |     48601608 |     48601608 |     48601608 |    172398691 |    172398691 |    172398691 |    172398691 |    321805285 |    321805285 |    321805285 |    321805285 |
sim_elapsed_time                                 1 |            1 |            7 |            3 |            1 |            1 |            9 |            5 |            1 |            1 |           15 |            8 |            1 |            1 |           25 |           13 |            3 |            2 |           46 |           23 |            5 |            5 |           84 |           42 |           11 |           11 |          155 |           72 |           23 |           23 |          266 |          103 |           49 |           49 |          371 |          130 |          163 |          162 |          492 |          253 |          315 |          315 |          654 |          414 |
sim_inst_rate                          460596.0000 |  460596.0000 |   65799.4286 |  153532.0000 |  990010.0000 |  990010.0000 |  110001.1111 |  198002.0000 | 2155009.0000 | 2155009.0000 |  143667.2667 |  269376.1250 | 4600034.0000 | 4600034.0000 |  184001.3600 |  353848.7692 | 3190105.0000 | 4785157.5000 |  208050.3261 |  416100.6522 | 4164271.6000 | 4164271.6000 |  247873.3095 |  495746.6190 | 3979351.2727 | 3979351.2727 |  282405.5742 |  607956.4444 | 3976659.4783 | 3976659.4783 |  343846.4962 |  887991.9223 | 4006814.7551 | 4006814.7551 |  529201.9488 | 1510260.9462 | 3823869.3804 | 3847473.5123 | 1266851.0346 | 2463599.6403 | 3874544.2381 | 3874544.2381 | 1866179.5642 | 2948022.7899 |
il1.accesses                                460596 |       460596 |       460596 |       460596 |       990010 |       990010 |       990010 |       990010 |      2155009 |      2155009 |      2155009 |      2155009 |      4600034 |      4600034 |      4600034 |      4600034 |      9570315 |      9570315 |      9570315 |      9570315 |     20821358 |     20821358 |     20821358 |     20821358 |     43772864 |     43772864 |     43772864 |     43772864 |     91463168 |     91463168 |     91463168 |     91463168 |    196333923 |    196333923 |    196333923 |    196333923 |    623290709 |    623290709 |    623290709 |    623290709 |   1220481435 |   1220481435 |   1220481435 |   1220481435 |
il1.hits                                    460119 |       460119 |       460157 |       460157 |       989537 |       989537 |       989574 |       989574 |      2154540 |      2154540 |      2154570 |      2154570 |      4599556 |      4599556 |      4599593 |      4599593 |      9569834 |      9569834 |      9569871 |      9569871 |     20820877 |     20820877 |     20820914 |     20820914 |     43772383 |     43772383 |     43772420 |     43772420 |     91462693 |     91462693 |     91462730 |     91462730 |    196333442 |    196333442 |    196333479 |    196333479 |    623289961 |    623289961 |    623290008 |    623290008 |   1220480684 |   1220480684 |   1220480731 |   1220480731 |
il1.misses                                     477 |          477 |          439 |          439 |          473 |          473 |          436 |          436 |          469 |          469 |          439 |          439 |          478 |          478 |          441 |          441 |          481 |          481 |          444 |          444 |          481 |          481 |          444 |          444 |          481 |          481 |          444 |          444 |          475 |          475 |          438 |          438 |          481 |          481 |          444 |          444 |          748 |          748 |          701 |          701 |          751 |          751 |          704 |          704 |
il1.replacements                               236 |          236 |          183 |          183 |          232 |          232 |          180 |          180 |          224 |          224 |          183 |          183 |          235 |          235 |          185 |          185 |          238 |          238 |          188 |          188 |          238 |          238 |          188 |          188 |          238 |          238 |          188 |          188 |          232 |          232 |          182 |          182 |          238 |          238 |          188 |          188 |          492 |          492 |          445 |          445 |          495 |          495 |          448 |          448 |
il1.writebacks                                   0 |            0 |            0 |            0 |            0 |            0 |            0 |            0 |            0 |            0 |            0 |            0 |            0 |            0 |            0 |            0 |            0 |            0 |            0 |            0 |            0 |            0 |            0 |            0 |            0 |            0 |            0 |            0 |            0 |            0 |            0 |            0 |            0 |            0 |            0 |            0 |            0 |            0 |            0 |            0 |            0 |            0 |            0 |            0 |
il1.invalidations                                0 |            0 |            0 |            0 |            0 |            0 |            0 |            0 |            0 |            0 |            0 |            0 |            0 |            0 |            0 |            0 |            0 |            0 |            0 |            0 |            0 |            0 |            0 |            0 |            0 |            0 |            0 |            0 |            0 |            0 |            0 |            0 |            0 |            0 |            0 |            0 |            0 |            0 |            0 |            0 |            0 |            0 |            0 |            0 |
il1.miss_rate                               0.0010 |       0.0010 |       0.0010 |       0.0010 |       0.0005 |       0.0005 |       0.0004 |       0.0004 |       0.0002 |       0.0002 |       0.0002 |       0.0002 |       0.0001 |       0.0001 |       0.0001 |       0.0001 |       0.0001 |       0.0001 |       0.0000 |       0.0000 |       0.0000 |       0.0000 |       0.0000 |       0.0000 |       0.0000 |       0.0000 |       0.0000 |       0.0000 |       0.0000 |       0.0000 |       0.0000 |       0.0000 |       0.0000 |       0.0000 |       0.0000 |       0.0000 |       0.0000 |       0.0000 |       0.0000 |       0.0000 |       0.0000 |       0.0000 |       0.0000 |       0.0000 |
il1.repl_rate                               0.0005 |       0.0005 |       0.0004 |       0.0004 |       0.0002 |       0.0002 |       0.0002 |       0.0002 |       0.0001 |       0.0001 |       0.0001 |       0.0001 |       0.0001 |       0.0001 |       0.0000 |       0.0000 |       0.0000 |       0.0000 |       0.0000 |       0.0000 |       0.0000 |       0.0000 |       0.0000 |       0.0000 |       0.0000 |       0.0000 |       0.0000 |       0.0000 |       0.0000 |       0.0000 |       0.0000 |       0.0000 |       0.0000 |       0.0000 |       0.0000 |       0.0000 |       0.0000 |       0.0000 |       0.0000 |       0.0000 |       0.0000 |       0.0000 |       0.0000 |       0.0000 |
il1.wb_rate                                 0.0000 |       0.0000 |       0.0000 |       0.0000 |       0.0000 |       0.0000 |       0.0000 |       0.0000 |       0.0000 |       0.0000 |       0.0000 |       0.0000 |       0.0000 |       0.0000 |       0.0000 |       0.0000 |       0.0000 |       0.0000 |       0.0000 |       0.0000 |       0.0000 |       0.0000 |       0.0000 |       0.0000 |       0.0000 |       0.0000 |       0.0000 |       0.0000 |       0.0000 |       0.0000 |       0.0000 |       0.0000 |       0.0000 |       0.0000 |       0.0000 |       0.0000 |       0.0000 |       0.0000 |       0.0000 |       0.0000 |       0.0000 |       0.0000 |       0.0000 |       0.0000 |
il1.inv_rate                                0.0000 |       0.0000 |       0.0000 |       0.0000 |       0.0000 |       0.0000 |       0.0000 |       0.0000 |       0.0000 |       0.0000 |       0.0000 |       0.0000 |       0.0000 |       0.0000 |       0.0000 |       0.0000 |       0.0000 |       0.0000 |       0.0000 |       0.0000 |       0.0000 |       0.0000 |       0.0000 |       0.0000 |       0.0000 |       0.0000 |       0.0000 |       0.0000 |       0.0000 |       0.0000 |       0.0000 |       0.0000 |       0.0000 |       0.0000 |       0.0000 |       0.0000 |       0.0000 |       0.0000 |       0.0000 |       0.0000 |       0.0000 |       0.0000 |       0.0000 |       0.0000 |
dl1.accesses                                138847 |       138847 |       138847 |       138847 |       290969 |       290969 |       290969 |       290969 |       617917 |       617917 |       617917 |       617917 |      1301695 |      1301695 |      1301695 |      1301695 |      2704985 |      2704985 |      2704985 |      2704985 |      5752215 |      5752215 |      5752215 |      5752215 |     12023229 |     12023229 |     12023229 |     12023229 |     25033811 |     25033811 |     25033811 |     25033811 |     52795994 |     52795994 |     52795994 |     52795994 |    180787382 |    180787382 |    180787382 |    180787382 |    338582584 |    338582584 |    338582584 |    338582584 |
dl1.hits                                    136773 |       136773 |       136790 |       136790 |       285887 |       285887 |       285832 |       285832 |       605375 |       605375 |       605348 |       605348 |      1272928 |      1272928 |      1273213 |      1273213 |      2642094 |      2642094 |      2642580 |      2642580 |      5595898 |      5595898 |      5597473 |      5597473 |     11679185 |     11679185 |     11682715 |     11682715 |     24296400 |     24296400 |     24302281 |     24302281 |     51079341 |     51079341 |     51098193 |     51098193 |    171868961 |    171868961 |    175480778 |    175480778 |    324710988 |    324710988 |    329504219 |    329504219 |
dl1.misses                                    2074 |         2074 |         2057 |         2057 |         5082 |         5082 |         5137 |         5137 |        12542 |        12542 |        12569 |        12569 |        28767 |        28767 |        28482 |        28482 |        62891 |        62891 |        62405 |        62405 |       156317 |       156317 |       154742 |       154742 |       344044 |       344044 |       340514 |       340514 |       737411 |       737411 |       731530 |       731530 |      1716653 |      1716653 |      1697801 |      1697801 |      8918421 |      8918421 |      5306604 |      5306604 |     13871596 |     13871596 |      9078365 |      9078365 |
dl1.replacements                              1818 |         1818 |         1801 |         1801 |         4826 |         4826 |         4881 |         4881 |        12286 |        12286 |        12313 |        12313 |        28511 |        28511 |        28226 |        28226 |        62635 |        62635 |        62149 |        62149 |       156061 |       156061 |       154486 |       154486 |       343788 |       343788 |       340258 |       340258 |       737155 |       737155 |       731274 |       731274 |      1716397 |      1716397 |      1697545 |      1697545 |      8918165 |      8918165 |      5306348 |      5306348 |     13871340 |     13871340 |      9078109 |      9078109 |
dl1.writebacks                                1788 |         1788 |         1789 |         1789 |         4632 |         4632 |         4731 |         4731 |        11412 |        11412 |        11557 |        11557 |        26494 |        26494 |        26465 |        26465 |        60239 |        60239 |        60387 |        60387 |       143543 |       143543 |       143558 |       143558 |       319482 |       319482 |       319602 |       319602 |       695177 |       695177 |       696893 |       696893 |      1555861 |      1555861 |      1554282 |      1554282 |      6670888 |      6670888 |      4556079 |      4556079 |     11723085 |     11723085 |      7663878 |      7663878 |
dl1.invalidations                                0 |            0 |            0 |            0 |            0 |            0 |            0 |            0 |            0 |            0 |            0 |            0 |            0 |            0 |            0 |            0 |            0 |            0 |            0 |            0 |            0 |            0 |            0 |            0 |            0 |            0 |            0 |            0 |            0 |            0 |            0 |            0 |            0 |            0 |            0 |            0 |            0 |            0 |            0 |            0 |            0 |            0 |            0 |            0 |
dl1.miss_rate                               0.0149 |       0.0149 |       0.0148 |       0.0148 |       0.0175 |       0.0175 |       0.0177 |       0.0177 |       0.0203 |       0.0203 |       0.0203 |       0.0203 |       0.0221 |       0.0221 |       0.0219 |       0.0219 |       0.0233 |       0.0233 |       0.0231 |       0.0231 |       0.0272 |       0.0272 |       0.0269 |       0.0269 |       0.0286 |       0.0286 |       0.0283 |       0.0283 |       0.0295 |       0.0295 |       0.0292 |       0.0292 |       0.0325 |       0.0325 |       0.0322 |       0.0322 |       0.0493 |       0.0493 |       0.0294 |       0.0294 |       0.0410 |       0.0410 |       0.0268 |       0.0268 |
dl1.repl_rate                               0.0131 |       0.0131 |       0.0130 |       0.0130 |       0.0166 |       0.0166 |       0.0168 |       0.0168 |       0.0199 |       0.0199 |       0.0199 |       0.0199 |       0.0219 |       0.0219 |       0.0217 |       0.0217 |       0.0232 |       0.0232 |       0.0230 |       0.0230 |       0.0271 |       0.0271 |       0.0269 |       0.0269 |       0.0286 |       0.0286 |       0.0283 |       0.0283 |       0.0294 |       0.0294 |       0.0292 |       0.0292 |       0.0325 |       0.0325 |       0.0322 |       0.0322 |       0.0493 |       0.0493 |       0.0294 |       0.0294 |       0.0410 |       0.0410 |       0.0268 |       0.0268 |
dl1.wb_rate                                 0.0129 |       0.0129 |       0.0129 |       0.0129 |       0.0159 |       0.0159 |       0.0163 |       0.0163 |       0.0185 |       0.0185 |       0.0187 |       0.0187 |       0.0204 |       0.0204 |       0.0203 |       0.0203 |       0.0223 |       0.0223 |       0.0223 |       0.0223 |       0.0250 |       0.0250 |       0.0250 |       0.0250 |       0.0266 |       0.0266 |       0.0266 |       0.0266 |       0.0278 |       0.0278 |       0.0278 |       0.0278 |       0.0295 |       0.0295 |       0.0294 |       0.0294 |       0.0369 |       0.0369 |       0.0252 |       0.0252 |       0.0346 |       0.0346 |       0.0226 |       0.0226 |
dl1.inv_rate                                0.0000 |       0.0000 |       0.0000 |       0.0000 |       0.0000 |       0.0000 |       0.0000 |       0.0000 |       0.0000 |       0.0000 |       0.0000 |       0.0000 |       0.0000 |       0.0000 |       0.0000 |       0.0000 |       0.0000 |       0.0000 |       0.0000 |       0.0000 |       0.0000 |       0.0000 |       0.0000 |       0.0000 |       0.0000 |       0.0000 |       0.0000 |       0.0000 |       0.0000 |       0.0000 |       0.0000 |       0.0000 |       0.0000 |       0.0000 |       0.0000 |       0.0000 |       0.0000 |       0.0000 |       0.0000 |       0.0000 |       0.0000 |       0.0000 |       0.0000 |       0.0000 |
dl2.accesses                                  4339 |         4339 |         4285 |         4285 |        10187 |        10187 |        10304 |        10304 |        24423 |        24423 |        24565 |        24565 |        55739 |        55739 |        55388 |        55388 |       123611 |       123611 |       123236 |       123236 |       300341 |       300341 |       298744 |       298744 |       664007 |       664007 |       660560 |       660560 |      1433063 |      1433063 |      1428861 |      1428861 |      3272995 |      3272995 |      3252527 |      3252527 |     15590057 |     15590057 |      9863384 |      9863384 |     25595432 |     25595432 |     16742947 |     16742947 |
dl2.hits                                      2906 |         2906 |         2896 |         2896 |         8248 |         8248 |         8406 |         8406 |        21472 |        21472 |        21654 |        21654 |        50736 |        50736 |        50429 |        50429 |       114508 |       114508 |       114177 |       114177 |       283046 |       283046 |       281493 |       281493 |       630328 |       630328 |       626925 |       626925 |      1366623 |      1365982 |      1362464 |      1313446 |      3140320 |      2938083 |      3004167 |      2886955 |     12826018 |     12710100 |      7087182 |      7010373 |     21438705 |     21330615 |     12629841 |     12447196 |
dl2.misses                                    1433 |         1433 |         1389 |         1389 |         1939 |         1939 |         1898 |         1898 |         2951 |         2951 |         2911 |         2911 |         5003 |         5003 |         4959 |         4959 |         9103 |         9103 |         9059 |         9059 |        17295 |        17295 |        17251 |        17251 |        33679 |        33679 |        33635 |        33635 |        66440 |        67081 |        66397 |       115415 |       132675 |       334912 |       248360 |       365572 |      2764039 |      2879957 |      2776202 |      2853011 |      4156727 |      4264817 |      4113106 |      4295751 |
dl2.replacements                               291 |          291 |            0 |            0 |          287 |          287 |            0 |            0 |          291 |          291 |            0 |            0 |          293 |          293 |            0 |            0 |          296 |          296 |            0 |            0 |          296 |          296 |            0 |            0 |          296 |          296 |            0 |            0 |          291 |         1545 |            0 |        49879 |         1603 |       269376 |       117288 |       300036 |      2632967 |      2814421 |      2645130 |      2787475 |      4025655 |      4199281 |      3982034 |      4230215 |
dl2.writebacks                                 152 |          152 |            0 |            0 |          150 |          150 |            0 |            0 |          151 |          151 |            0 |            0 |          151 |          151 |            0 |            0 |          151 |          151 |            0 |            0 |          151 |          151 |            0 |            0 |          151 |          151 |            0 |            0 |          150 |         1277 |            0 |        49648 |         1313 |       267845 |       117057 |       297144 |      2115688 |      2287345 |      2140011 |      2274591 |      2990821 |      3160222 |      2956781 |      3201007 |
dl2.invalidations                                0 |            0 |            0 |            0 |            0 |            0 |            0 |            0 |            0 |            0 |            0 |            0 |            0 |            0 |            0 |            0 |            0 |            0 |            0 |            0 |            0 |            0 |            0 |            0 |            0 |            0 |            0 |            0 |            0 |            0 |            0 |            0 |            0 |            0 |            0 |            0 |            0 |            0 |            0 |            0 |            0 |            0 |            0 |            0 |
dl2.miss_rate                               0.3303 |       0.3303 |       0.3242 |       0.3242 |       0.1903 |       0.1903 |       0.1842 |       0.1842 |       0.1208 |       0.1208 |       0.1185 |       0.1185 |       0.0898 |       0.0898 |       0.0895 |       0.0895 |       0.0736 |       0.0736 |       0.0735 |       0.0735 |       0.0576 |       0.0576 |       0.0577 |       0.0577 |       0.0507 |       0.0507 |       0.0509 |       0.0509 |       0.0464 |       0.0468 |       0.0465 |       0.0808 |       0.0405 |       0.1023 |       0.0764 |       0.1124 |       0.1773 |       0.1847 |       0.2815 |       0.2893 |       0.1624 |       0.1666 |       0.2457 |       0.2566 |
dl2.repl_rate                               0.0671 |       0.0671 |       0.0000 |       0.0000 |       0.0282 |       0.0282 |       0.0000 |       0.0000 |       0.0119 |       0.0119 |       0.0000 |       0.0000 |       0.0053 |       0.0053 |       0.0000 |       0.0000 |       0.0024 |       0.0024 |       0.0000 |       0.0000 |       0.0010 |       0.0010 |       0.0000 |       0.0000 |       0.0004 |       0.0004 |       0.0000 |       0.0000 |       0.0002 |       0.0011 |       0.0000 |       0.0349 |       0.0005 |       0.0823 |       0.0361 |       0.0922 |       0.1689 |       0.1805 |       0.2682 |       0.2826 |       0.1573 |       0.1641 |       0.2378 |       0.2527 |
dl2.wb_rate                                 0.0350 |       0.0350 |       0.0000 |       0.0000 |       0.0147 |       0.0147 |       0.0000 |       0.0000 |       0.0062 |       0.0062 |       0.0000 |       0.0000 |       0.0027 |       0.0027 |       0.0000 |       0.0000 |       0.0012 |       0.0012 |       0.0000 |       0.0000 |       0.0005 |       0.0005 |       0.0000 |       0.0000 |       0.0002 |       0.0002 |       0.0000 |       0.0000 |       0.0001 |       0.0009 |       0.0000 |       0.0347 |       0.0004 |       0.0818 |       0.0360 |       0.0914 |       0.1357 |       0.1467 |       0.2170 |       0.2306 |       0.1168 |       0.1235 |       0.1766 |       0.1912 |
dl2.inv_rate                                0.0000 |       0.0000 |       0.0000 |       0.0000 |       0.0000 |       0.0000 |       0.0000 |       0.0000 |       0.0000 |       0.0000 |       0.0000 |       0.0000 |       0.0000 |       0.0000 |       0.0000 |       0.0000 |       0.0000 |       0.0000 |       0.0000 |       0.0000 |       0.0000 |       0.0000 |       0.0000 |       0.0000 |       0.0000 |       0.0000 |       0.0000 |       0.0000 |       0.0000 |       0.0000 |       0.0000 |       0.0000 |       0.0000 |       0.0000 |       0.0000 |       0.0000 |       0.0000 |       0.0000 |       0.0000 |       0.0000 |       0.0000 |       0.0000 |       0.0000 |       0.0000 |
itlb.accesses                               460596 |       460596 |       460596 |       460596 |       990010 |       990010 |       990010 |       990010 |      2155009 |      2155009 |      2155009 |      2155009 |      4600034 |      4600034 |      4600034 |      4600034 |      9570315 |      9570315 |      9570315 |      9570315 |     20821358 |     20821358 |     20821358 |     20821358 |     43772864 |     43772864 |     43772864 |     43772864 |     91463168 |     91463168 |     91463168 |     91463168 |    196333923 |    196333923 |    196333923 |    196333923 |    623290709 |    623290709 |    623290709 |    623290709 |   1220481435 |   1220481435 |   1220481435 |   1220481435 |
itlb.hits                                   460584 |       460584 |       460584 |       460584 |       989998 |       989998 |       989998 |       989998 |      2154997 |      2154997 |      2154997 |      2154997 |      4600022 |      4600022 |      4600022 |      4600022 |      9570303 |      9570303 |      9570303 |      9570303 |     20821346 |     20821346 |     20821346 |     20821346 |     43772852 |     43772852 |     43772852 |     43772852 |     91463156 |     91463156 |     91463156 |     91463156 |    196333911 |    196333911 |    196333911 |    196333911 |    623290697 |    623290697 |    623290697 |    623290697 |   1220481423 |   1220481423 |   1220481423 |   1220481423 |
itlb.misses                                     12 |           12 |           12 |           12 |           12 |           12 |           12 |           12 |           12 |           12 |           12 |           12 |           12 |           12 |           12 |           12 |           12 |           12 |           12 |           12 |           12 |           12 |           12 |           12 |           12 |           12 |           12 |           12 |           12 |           12 |           12 |           12 |           12 |           12 |           12 |           12 |           12 |           12 |           12 |           12 |           12 |           12 |           12 |           12 |
itlb.replacements                                0 |            0 |            0 |            0 |            0 |            0 |            0 |            0 |            0 |            0 |            0 |            0 |            0 |            0 |            0 |            0 |            0 |            0 |            0 |            0 |            0 |            0 |            0 |            0 |            0 |            0 |            0 |            0 |            0 |            0 |            0 |            0 |            0 |            0 |            0 |            0 |            0 |            0 |            0 |            0 |            0 |            0 |            0 |            0 |
itlb.writebacks                                  0 |            0 |            0 |            0 |            0 |            0 |            0 |            0 |            0 |            0 |            0 |            0 |            0 |            0 |            0 |            0 |            0 |            0 |            0 |            0 |            0 |            0 |            0 |            0 |            0 |            0 |            0 |            0 |            0 |            0 |            0 |            0 |            0 |            0 |            0 |            0 |            0 |            0 |            0 |            0 |            0 |            0 |            0 |            0 |
itlb.invalidations                               0 |            0 |            0 |            0 |            0 |            0 |            0 |            0 |            0 |            0 |            0 |            0 |            0 |            0 |            0 |            0 |            0 |            0 |            0 |            0 |            0 |            0 |            0 |            0 |            0 |            0 |            0 |            0 |            0 |            0 |            0 |            0 |            0 |            0 |            0 |            0 |            0 |            0 |            0 |            0 |            0 |            0 |            0 |            0 |
itlb.miss_rate                              0.0000 |       0.0000 |       0.0000 |       0.0000 |       0.0000 |       0.0000 |       0.0000 |       0.0000 |       0.0000 |       0.0000 |       0.0000 |       0.0000 |       0.0000 |       0.0000 |       0.0000 |       0.0000 |       0.0000 |       0.0000 |       0.0000 |       0.0000 |       0.0000 |       0.0000 |       0.0000 |       0.0000 |       0.0000 |       0.0000 |       0.0000 |       0.0000 |       0.0000 |       0.0000 |       0.0000 |       0.0000 |       0.0000 |       0.0000 |       0.0000 |       0.0000 |       0.0000 |       0.0000 |       0.0000 |       0.0000 |       0.0000 |       0.0000 |       0.0000 |       0.0000 |
itlb.repl_rate                              0.0000 |       0.0000 |       0.0000 |       0.0000 |       0.0000 |       0.0000 |       0.0000 |       0.0000 |       0.0000 |       0.0000 |       0.0000 |       0.0000 |       0.0000 |       0.0000 |       0.0000 |       0.0000 |       0.0000 |       0.0000 |       0.0000 |       0.0000 |       0.0000 |       0.0000 |       0.0000 |       0.0000 |       0.0000 |       0.0000 |       0.0000 |       0.0000 |       0.0000 |       0.0000 |       0.0000 |       0.0000 |       0.0000 |       0.0000 |       0.0000 |       0.0000 |       0.0000 |       0.0000 |       0.0000 |       0.0000 |       0.0000 |       0.0000 |       0.0000 |       0.0000 |
itlb.wb_rate                                0.0000 |       0.0000 |       0.0000 |       0.0000 |       0.0000 |       0.0000 |       0.0000 |       0.0000 |       0.0000 |       0.0000 |       0.0000 |       0.0000 |       0.0000 |       0.0000 |       0.0000 |       0.0000 |       0.0000 |       0.0000 |       0.0000 |       0.0000 |       0.0000 |       0.0000 |       0.0000 |       0.0000 |       0.0000 |       0.0000 |       0.0000 |       0.0000 |       0.0000 |       0.0000 |       0.0000 |       0.0000 |       0.0000 |       0.0000 |       0.0000 |       0.0000 |       0.0000 |       0.0000 |       0.0000 |       0.0000 |       0.0000 |       0.0000 |       0.0000 |       0.0000 |
itlb.inv_rate                               0.0000 |       0.0000 |       0.0000 |       0.0000 |       0.0000 |       0.0000 |       0.0000 |       0.0000 |       0.0000 |       0.0000 |       0.0000 |       0.0000 |       0.0000 |       0.0000 |       0.0000 |       0.0000 |       0.0000 |       0.0000 |       0.0000 |       0.0000 |       0.0000 |       0.0000 |       0.0000 |       0.0000 |       0.0000 |       0.0000 |       0.0000 |       0.0000 |       0.0000 |       0.0000 |       0.0000 |       0.0000 |       0.0000 |       0.0000 |       0.0000 |       0.0000 |       0.0000 |       0.0000 |       0.0000 |       0.0000 |       0.0000 |       0.0000 |       0.0000 |       0.0000 |
dtlb.accesses                               138847 |       138847 |       138847 |       138847 |       290969 |       290969 |       290969 |       290969 |       617917 |       617917 |       617917 |       617917 |      1301695 |      1301695 |      1301695 |      1301695 |      2704985 |      2704985 |      2704985 |      2704985 |      5752215 |      5752215 |      5752215 |      5752215 |     12023229 |     12023229 |     12023229 |     12023229 |     25033811 |     25033811 |     25033811 |     25033811 |     52795994 |     52795994 |     52795994 |     52795994 |    180787382 |    180787382 |    180787382 |    180787382 |    338582584 |    338582584 |    338582584 |    338582584 |
dtlb.hits                                   138835 |       138835 |       138835 |       138835 |       290953 |       290953 |       290953 |       290953 |       617893 |       617893 |       617893 |       617893 |      1301655 |      1301655 |      1301655 |      1301655 |      2704913 |      2704913 |      2704913 |      2704913 |      5752051 |      5752051 |      5752051 |      5752051 |     12022403 |     12022403 |     12022403 |     12022403 |     25031715 |     25031715 |     25031715 |     25031715 |     52789820 |     52789820 |     52789820 |     52789820 |    180760747 |    180760747 |    180760747 |    180760747 |    338541870 |    338541870 |    338541870 |    338541870 |
dtlb.misses                                     12 |           12 |           12 |           12 |           16 |           16 |           16 |           16 |           24 |           24 |           24 |           24 |           40 |           40 |           40 |           40 |           72 |           72 |           72 |           72 |          164 |          164 |          164 |          164 |          826 |          826 |          826 |          826 |         2096 |         2096 |         2096 |         2096 |         6174 |         6174 |         6174 |         6174 |        26635 |        26635 |        26635 |        26635 |        40714 |        40714 |        40714 |        40714 |
dtlb.replacements                                0 |            0 |            0 |            0 |            0 |            0 |            0 |            0 |            0 |            0 |            0 |            0 |            0 |            0 |            0 |            0 |            0 |            0 |            0 |            0 |           36 |           36 |           36 |           36 |          698 |          698 |          698 |          698 |         1968 |         1968 |         1968 |         1968 |         6046 |         6046 |         6046 |         6046 |        26507 |        26507 |        26507 |        26507 |        40586 |        40586 |        40586 |        40586 |
dtlb.writebacks                                  0 |            0 |            0 |            0 |            0 |            0 |            0 |            0 |            0 |            0 |            0 |            0 |            0 |            0 |            0 |            0 |            0 |            0 |            0 |            0 |           34 |           34 |           34 |           34 |          696 |          696 |          696 |          696 |         1966 |         1966 |         1966 |         1966 |         6043 |         6043 |         6043 |         6043 |        24444 |        24444 |        24444 |        24444 |        36463 |        36463 |        36463 |        36463 |
dtlb.invalidations                               0 |            0 |            0 |            0 |            0 |            0 |            0 |            0 |            0 |            0 |            0 |            0 |            0 |            0 |            0 |            0 |            0 |            0 |            0 |            0 |            0 |            0 |            0 |            0 |            0 |            0 |            0 |            0 |            0 |            0 |            0 |            0 |            0 |            0 |            0 |            0 |            0 |            0 |            0 |            0 |            0 |            0 |            0 |            0 |
dtlb.miss_rate                              0.0001 |       0.0001 |       0.0001 |       0.0001 |       0.0001 |       0.0001 |       0.0001 |       0.0001 |       0.0000 |       0.0000 |       0.0000 |       0.0000 |       0.0000 |       0.0000 |       0.0000 |       0.0000 |       0.0000 |       0.0000 |       0.0000 |       0.0000 |       0.0000 |       0.0000 |       0.0000 |       0.0000 |       0.0001 |       0.0001 |       0.0001 |       0.0001 |       0.0001 |       0.0001 |       0.0001 |       0.0001 |       0.0001 |       0.0001 |       0.0001 |       0.0001 |       0.0001 |       0.0001 |       0.0001 |       0.0001 |       0.0001 |       0.0001 |       0.0001 |       0.0001 |
dtlb.repl_rate                              0.0000 |       0.0000 |       0.0000 |       0.0000 |       0.0000 |       0.0000 |       0.0000 |       0.0000 |       0.0000 |       0.0000 |       0.0000 |       0.0000 |       0.0000 |       0.0000 |       0.0000 |       0.0000 |       0.0000 |       0.0000 |       0.0000 |       0.0000 |       0.0000 |       0.0000 |       0.0000 |       0.0000 |       0.0001 |       0.0001 |       0.0001 |       0.0001 |       0.0001 |       0.0001 |       0.0001 |       0.0001 |       0.0001 |       0.0001 |       0.0001 |       0.0001 |       0.0001 |       0.0001 |       0.0001 |       0.0001 |       0.0001 |       0.0001 |       0.0001 |       0.0001 |
dtlb.wb_rate                                0.0000 |       0.0000 |       0.0000 |       0.0000 |       0.0000 |       0.0000 |       0.0000 |       0.0000 |       0.0000 |       0.0000 |       0.0000 |       0.0000 |       0.0000 |       0.0000 |       0.0000 |       0.0000 |       0.0000 |       0.0000 |       0.0000 |       0.0000 |       0.0000 |       0.0000 |       0.0000 |       0.0000 |       0.0001 |       0.0001 |       0.0001 |       0.0001 |       0.0001 |       0.0001 |       0.0001 |       0.0001 |       0.0001 |       0.0001 |       0.0001 |       0.0001 |       0.0001 |       0.0001 |       0.0001 |       0.0001 |       0.0001 |       0.0001 |       0.0001 |       0.0001 |
dtlb.inv_rate                               0.0000 |       0.0000 |       0.0000 |       0.0000 |       0.0000 |       0.0000 |       0.0000 |       0.0000 |       0.0000 |       0.0000 |       0.0000 |       0.0000 |       0.0000 |       0.0000 |       0.0000 |       0.0000 |       0.0000 |       0.0000 |       0.0000 |       0.0000 |       0.0000 |       0.0000 |       0.0000 |       0.0000 |       0.0000 |       0.0000 |       0.0000 |       0.0000 |       0.0000 |       0.0000 |       0.0000 |       0.0000 |       0.0000 |       0.0000 |       0.0000 |       0.0000 |       0.0000 |       0.0000 |       0.0000 |       0.0000 |       0.0000 |       0.0000 |       0.0000 |       0.0000 |
ld_text_base                            0x00400000 |   0x00400000 |   0x00400000 |   0x00400000 |   0x00400000 |   0x00400000 |   0x00400000 |   0x00400000 |   0x00400000 |   0x00400000 |   0x00400000 |   0x00400000 |   0x00400000 |   0x00400000 |   0x00400000 |   0x00400000 |   0x00400000 |   0x00400000 |   0x00400000 |   0x00400000 |   0x00400000 |   0x00400000 |   0x00400000 |   0x00400000 |   0x00400000 |   0x00400000 |   0x00400000 |   0x00400000 |   0x00400000 |   0x00400000 |   0x00400000 |   0x00400000 |   0x00400000 |   0x00400000 |   0x00400000 |   0x00400000 |   0x00400000 |   0x00400000 |   0x00400000 |   0x00400000 |   0x00400000 |   0x00400000 |   0x00400000 |   0x00400000 |
ld_text_size                                 78592 |        78592 |        78592 |        78592 |        78624 |        78624 |        78624 |        78624 |        78640 |        78640 |        78640 |        78640 |        78656 |        78656 |        78656 |        78656 |        78656 |        78656 |        78656 |        78656 |        78656 |        78656 |        78656 |        78656 |        78656 |        78656 |        78656 |        78656 |        78656 |        78656 |        78656 |        78656 |        78656 |        78656 |        78656 |        78656 |        78656 |        78656 |        78656 |        78656 |        78656 |        78656 |        78656 |        78656 |
ld_data_base                            0x10000000 |   0x10000000 |   0x10000000 |   0x10000000 |   0x10000000 |   0x10000000 |   0x10000000 |   0x10000000 |   0x10000000 |   0x10000000 |   0x10000000 |   0x10000000 |   0x10000000 |   0x10000000 |   0x10000000 |   0x10000000 |   0x10000000 |   0x10000000 |   0x10000000 |   0x10000000 |   0x10000000 |   0x10000000 |   0x10000000 |   0x10000000 |   0x10000000 |   0x10000000 |   0x10000000 |   0x10000000 |   0x10000000 |   0x10000000 |   0x10000000 |   0x10000000 |   0x10000000 |   0x10000000 |   0x10000000 |   0x10000000 |   0x10000000 |   0x10000000 |   0x10000000 |   0x10000000 |   0x10000000 |   0x10000000 |   0x10000000 |   0x10000000 |
ld_data_size                                  8192 |         8192 |         8192 |         8192 |         8192 |         8192 |         8192 |         8192 |         8192 |         8192 |         8192 |         8192 |         8192 |         8192 |         8192 |         8192 |         8192 |         8192 |         8192 |         8192 |         8192 |         8192 |         8192 |         8192 |         8192 |         8192 |         8192 |         8192 |         8192 |         8192 |         8192 |         8192 |         8192 |         8192 |         8192 |         8192 |         8192 |         8192 |         8192 |         8192 |         8192 |         8192 |         8192 |         8192 |
ld_stack_base                           0x7fffc000 |   0x7fffc000 |   0x7fffc000 |   0x7fffc000 |   0x7fffc000 |   0x7fffc000 |   0x7fffc000 |   0x7fffc000 |   0x7fffc000 |   0x7fffc000 |   0x7fffc000 |   0x7fffc000 |   0x7fffc000 |   0x7fffc000 |   0x7fffc000 |   0x7fffc000 |   0x7fffc000 |   0x7fffc000 |   0x7fffc000 |   0x7fffc000 |   0x7fffc000 |   0x7fffc000 |   0x7fffc000 |   0x7fffc000 |   0x7fffc000 |   0x7fffc000 |   0x7fffc000 |   0x7fffc000 |   0x7fffc000 |   0x7fffc000 |   0x7fffc000 |   0x7fffc000 |   0x7fffc000 |   0x7fffc000 |   0x7fffc000 |   0x7fffc000 |   0x7fffc000 |   0x7fffc000 |   0x7fffc000 |   0x7fffc000 |   0x7fffc000 |   0x7fffc000 |   0x7fffc000 |   0x7fffc000 |
ld_stack_size                                16384 |        16384 |        16384 |        16384 |        16384 |        16384 |        16384 |        16384 |        16384 |        16384 |        16384 |        16384 |        16384 |        16384 |        16384 |        16384 |        16384 |        16384 |        16384 |        16384 |        16384 |        16384 |        16384 |        16384 |        16384 |        16384 |        16384 |        16384 |        16384 |        16384 |        16384 |        16384 |        16384 |        16384 |        16384 |        16384 |        16384 |        16384 |        16384 |        16384 |        16384 |        16384 |        16384 |        16384 |
ld_prog_entry                           0x00400140 |   0x00400140 |   0x00400140 |   0x00400140 |   0x00400140 |   0x00400140 |   0x00400140 |   0x00400140 |   0x00400140 |   0x00400140 |   0x00400140 |   0x00400140 |   0x00400140 |   0x00400140 |   0x00400140 |   0x00400140 |   0x00400140 |   0x00400140 |   0x00400140 |   0x00400140 |   0x00400140 |   0x00400140 |   0x00400140 |   0x00400140 |   0x00400140 |   0x00400140 |   0x00400140 |   0x00400140 |   0x00400140 |   0x00400140 |   0x00400140 |   0x00400140 |   0x00400140 |   0x00400140 |   0x00400140 |   0x00400140 |   0x00400140 |   0x00400140 |   0x00400140 |   0x00400140 |   0x00400140 |   0x00400140 |   0x00400140 |   0x00400140 |
ld_environ_base                         0x7fff8000 |   0x7fff8000 |   0x7fff8000 |   0x7fff8000 |   0x7fff8000 |   0x7fff8000 |   0x7fff8000 |   0x7fff8000 |   0x7fff8000 |   0x7fff8000 |   0x7fff8000 |   0x7fff8000 |   0x7fff8000 |   0x7fff8000 |   0x7fff8000 |   0x7fff8000 |   0x7fff8000 |   0x7fff8000 |   0x7fff8000 |   0x7fff8000 |   0x7fff8000 |   0x7fff8000 |   0x7fff8000 |   0x7fff8000 |   0x7fff8000 |   0x7fff8000 |   0x7fff8000 |   0x7fff8000 |   0x7fff8000 |   0x7fff8000 |   0x7fff8000 |   0x7fff8000 |   0x7fff8000 |   0x7fff8000 |   0x7fff8000 |   0x7fff8000 |   0x7fff8000 |   0x7fff8000 |   0x7fff8000 |   0x7fff8000 |   0x7fff8000 |   0x7fff8000 |   0x7fff8000 |   0x7fff8000 |
ld_target_big_endian                             0 |            0 |            0 |            0 |            0 |            0 |            0 |            0 |            0 |            0 |            0 |            0 |            0 |            0 |            0 |            0 |            0 |            0 |            0 |            0 |            0 |            0 |            0 |            0 |            0 |            0 |            0 |            0 |            0 |            0 |            0 |            0 |            0 |            0 |            0 |            0 |            0 |            0 |            0 |            0 |            0 |            0 |            0 |            0 |
mem.page_count                                  32 |           32 |           32 |           32 |           36 |           36 |           36 |           36 |           44 |           44 |           44 |           44 |           60 |           60 |           60 |           60 |           92 |           92 |           92 |           92 |          156 |          156 |          156 |          156 |          284 |          284 |          284 |          284 |          540 |          540 |          540 |          540 |         1052 |         1052 |         1052 |         1052 |         4149 |         4149 |         4149 |         4149 |         8265 |         8265 |         8265 |         8265 |
mem.page_mem                                  128k |         128k |         128k |         128k |         144k |         144k |         144k |         144k |         176k |         176k |         176k |         176k |         240k |         240k |         240k |         240k |         368k |         368k |         368k |         368k |         624k |         624k |         624k |         624k |        1136k |        1136k |        1136k |        1136k |        2160k |        2160k |        2160k |        2160k |        4208k |        4208k |        4208k |        4208k |       16596k |       16596k |       16596k |       16596k |       33060k |       33060k |       33060k |       33060k |
mem.ptab_misses                                 32 |           32 |           32 |           32 |           36 |           36 |           36 |           36 |           44 |           44 |           44 |           44 |           60 |           60 |           60 |           60 |           92 |           92 |           92 |           92 |          156 |          156 |          156 |          156 |          284 |          284 |          284 |          284 |          540 |          540 |          540 |          540 |         1052 |         1052 |         1052 |         1052 |        22563 |        22563 |        22563 |        22563 |        18501 |        18501 |        18501 |        18501 |
mem.ptab_accesses                          2606274 |      2606274 |      2606274 |      2606274 |      5028366 |      5028366 |      5028366 |      5028366 |     10342354 |     10342354 |     10342354 |     10342354 |     21490106 |     21490106 |     21490106 |     21490106 |     44177810 |     44177810 |     44177810 |     44177810 |     95276442 |     95276442 |     95276442 |     95276442 |    199624494 |    199624494 |    199624494 |    199624494 |    416406874 |    416406874 |    416406874 |    416406874 |    891414260 |    891414260 |    891414260 |    891414260 |   2855224180 |   2855224180 |   2855224180 |   2855224180 |   5559577488 |   5559577488 |   5559577488 |   5559577488 |
mem.ptab_miss_rate                          0.0000 |       0.0000 |       0.0000 |       0.0000 |       0.0000 |       0.0000 |       0.0000 |       0.0000 |       0.0000 |       0.0000 |       0.0000 |       0.0000 |       0.0000 |       0.0000 |       0.0000 |       0.0000 |       0.0000 |       0.0000 |       0.0000 |       0.0000 |       0.0000 |       0.0000 |       0.0000 |       0.0000 |       0.0000 |       0.0000 |       0.0000 |       0.0000 |       0.0000 |       0.0000 |       0.0000 |       0.0000 |       0.0000 |       0.0000 |       0.0000 |       0.0000 |       0.0000 |       0.0000 |       0.0000 |       0.0000 |       0.0000 |       0.0000 |       0.0000 |       0.0000 |
-------------------------------------------------------------------------------------------------
sim-bpred                                     4096 |         4096 |         4096 |         4096 |         4096 |         4096 |         4096 |         8192 |         8192 |         8192 |         8192 |         8192 |         8192 |         8192 |        16384 |        16384 |        16384 |        16384 |        16384 |        16384 |        16384 |        32768 |        32768 |        32768 |        32768 |        32768 |        32768 |        32768 |        65536 |        65536 |        65536 |        65536 |        65536 |        65536 |        65536 |       131072 |       131072 |       131072 |       131072 |       131072 |       131072 |       131072 |       262144 |       262144 |       262144 |       262144 |       262144 |       262144 |       262144 |       524288 |       524288 |       524288 |       524288 |       524288 |       524288 |       524288 |      1048576 |      1048576 |      1048576 |      1048576 |      1048576 |      1048576 |      1048576 |      2097152 |      2097152 |      2097152 |      2097152 |      2097152 |      2097152 |      2097152 |      4194304 |      4194304 |      4194304 |      4194304 |      4194304 |      4194304 |      4194304 |
-bpred bimod -bpred:bimod 512
-bpred bimod -bpred:bimod 1024
-bpred bimod -bpred:bimod 2048
-bpred 2lev -bpred:2lev 1 512 10 1
-bpred 2lev -bpred:2lev 1 1024 10 1
-bpred 2lev -bpred:2lev 1 2048 10 1
-bpred 2lev -bpred:2lev 1 4096 10 1
-------------------------------------------------------------------------------------------------
sim_num_insn                                460596 |       460596 |       460596 |       460596 |       460596 |       460596 |       460596 |       990010 |       990010 |       990010 |       990010 |       990010 |       990010 |       990010 |      2155009 |      2155009 |      2155009 |      2155009 |      2155009 |      2155009 |      2155009 |      4600034 |      4600034 |      4600034 |      4600034 |      4600034 |      4600034 |      4600034 |      9570315 |      9570315 |      9570315 |      9570315 |      9570315 |      9570315 |      9570315 |     20821358 |     20821358 |     20821358 |     20821358 |     20821358 |     20821358 |     20821358 |     43772864 |     43772864 |     43772864 |     43772864 |     43772864 |     43772864 |     43772864 |     91463168 |     91463168 |     91463168 |     91463168 |     91463168 |     91463168 |     91463168 |    196333923 |    196333923 |    196333923 |    196333923 |    196333923 |    196333923 |    196333923 |    623290709 |    623290709 |    623290709 |    623290709 |    623290709 |    623290709 |    623290709 |   1220481435 |   1220481435 |   1220481435 |   1220481435 |   1220481435 |   1220481435 |   1220481435 |
sim_num_refs                                122381 |       122381 |       122381 |       122381 |       122381 |       122381 |       122381 |       258119 |       258119 |       258119 |       258119 |       258119 |       258119 |       258119 |       552299 |       552299 |       552299 |       552299 |       552299 |       552299 |       552299 |      1170541 |      1170541 |      1170541 |      1170541 |      1170541 |      1170541 |      1170541 |      2442759 |      2442759 |      2442759 |      2442759 |      2442759 |      2442759 |      2442759 |      5227845 |      5227845 |      5227845 |      5227845 |      5227845 |      5227845 |      5227845 |     10974571 |     10974571 |     10974571 |     10974571 |     10974571 |     10974571 |     10974571 |     22936577 |     22936577 |     22936577 |     22936577 |     22936577 |     22936577 |     22936577 |     48601608 |     48601608 |     48601608 |     48601608 |     48601608 |     48601608 |     48601608 |    172398691 |    172398691 |    172398691 |    172398691 |    172398691 |    172398691 |    172398691 |    321805285 |    321805285 |    321805285 |    321805285 |    321805285 |    321805285 |    321805285 |
sim_elapsed_time                                 1 |            1 |            1 |            1 |            1 |            1 |            1 |            1 |            1 |            1 |            1 |            1 |            1 |            1 |            1 |            1 |            1 |            1 |            1 |            1 |            1 |            1 |            1 |            1 |            1 |            1 |            1 |            1 |            1 |            1 |            1 |            1 |            1 |            1 |            2 |            2 |            2 |            2 |            2 |            3 |            2 |            3 |            5 |            5 |            5 |            5 |            5 |            5 |            5 |           11 |           10 |           11 |           10 |           11 |           10 |           11 |           23 |           22 |           22 |           23 |           22 |           22 |           22 |           72 |           72 |           72 |           73 |           73 |           74 |           74 |          142 |          142 |          142 |          144 |          144 |          145 |          145 |
sim_inst_rate                          460596.0000 |  460596.0000 |  460596.0000 |  460596.0000 |  460596.0000 |  460596.0000 |  460596.0000 |  990010.0000 |  990010.0000 |  990010.0000 |  990010.0000 |  990010.0000 |  990010.0000 |  990010.0000 | 2155009.0000 | 2155009.0000 | 2155009.0000 | 2155009.0000 | 2155009.0000 | 2155009.0000 | 2155009.0000 | 4600034.0000 | 4600034.0000 | 4600034.0000 | 4600034.0000 | 4600034.0000 | 4600034.0000 | 4600034.0000 | 9570315.0000 | 9570315.0000 | 9570315.0000 | 9570315.0000 | 9570315.0000 | 9570315.0000 | 4785157.5000 |10410679.0000 |10410679.0000 |10410679.0000 |10410679.0000 | 6940452.6667 |10410679.0000 | 6940452.6667 | 8754572.8000 | 8754572.8000 | 8754572.8000 | 8754572.8000 | 8754572.8000 | 8754572.8000 | 8754572.8000 | 8314833.4545 | 9146316.8000 | 8314833.4545 | 9146316.8000 | 8314833.4545 | 9146316.8000 | 8314833.4545 | 8536257.5217 | 8924269.2273 | 8924269.2273 | 8536257.5217 | 8924269.2273 | 8924269.2273 | 8924269.2273 | 8656815.4028 | 8656815.4028 | 8656815.4028 | 8538228.8904 | 8538228.8904 | 8422847.4189 | 8422847.4189 | 8594939.6831 | 8594939.6831 | 8594939.6831 | 8475565.5208 | 8475565.5208 | 8417113.3448 | 8417113.3448 |
sim_num_branches                             75475 |        75475 |        75475 |        75475 |        75475 |        75475 |        75475 |       163663 |       163663 |       163663 |       163663 |       163663 |       163663 |       163663 |       358772 |       358772 |       358772 |       358772 |       358772 |       358772 |       358772 |       770169 |       770169 |       770169 |       770169 |       770169 |       770169 |       770169 |      1612743 |      1612743 |      1612743 |      1612743 |      1612743 |      1612743 |      1612743 |      3517422 |      3517422 |      3517422 |      3517422 |      3517422 |      3517422 |      3517422 |      7425032 |      7425032 |      7425032 |      7425032 |      7425032 |      7425032 |      7425032 |     15569368 |     15569368 |     15569368 |     15569368 |     15569368 |     15569368 |     15569368 |     33442920 |     33442920 |     33442920 |     33442920 |     33442920 |     33442920 |     33442920 |     96338107 |     96338107 |     96338107 |     96338107 |     96338107 |     96338107 |     96338107 |    193597924 |    193597924 |    193597924 |    193597924 |    193597924 |    193597924 |    193597924 |
sim_IPB                                     6.1026 |       6.1026 |       6.1026 |       6.1026 |       6.1026 |       6.1026 |       6.1026 |       6.0491 |       6.0491 |       6.0491 |       6.0491 |       6.0491 |       6.0491 |       6.0491 |       6.0066 |       6.0066 |       6.0066 |       6.0066 |       6.0066 |       6.0066 |       6.0066 |       5.9728 |       5.9728 |       5.9728 |       5.9728 |       5.9728 |       5.9728 |       5.9728 |       5.9342 |       5.9342 |       5.9342 |       5.9342 |       5.9342 |       5.9342 |       5.9342 |       5.9195 |       5.9195 |       5.9195 |       5.9195 |       5.9195 |       5.9195 |       5.9195 |       5.8953 |       5.8953 |       5.8953 |       5.8953 |       5.8953 |       5.8953 |       5.8953 |       5.8746 |       5.8746 |       5.8746 |       5.8746 |       5.8746 |       5.8746 |       5.8746 |       5.8707 |       5.8707 |       5.8707 |       5.8707 |       5.8707 |       5.8707 |       5.8707 |       6.4698 |       6.4698 |       6.4698 |       6.4698 |       6.4698 |       6.4698 |       6.4698 |       6.3042 |       6.3042 |       6.3042 |       6.3042 |       6.3042 |       6.3042 |       6.3042 |
bpred_bimod.lookups                          75475 |        75475 |        75475 |xxxxxxxxxxxxx |xxxxxxxxxxxxx |xxxxxxxxxxxxx |xxxxxxxxxxxxx |       163663 |       163663 |       163663 |xxxxxxxxxxxxx |xxxxxxxxxxxxx |xxxxxxxxxxxxx |xxxxxxxxxxxxx |       358772 |       358772 |       358772 |xxxxxxxxxxxxx |xxxxxxxxxxxxx |xxxxxxxxxxxxx |xxxxxxxxxxxxx |       770169 |       770169 |       770169 |xxxxxxxxxxxxx |xxxxxxxxxxxxx |xxxxxxxxxxxxx |xxxxxxxxxxxxx |      1612743 |      1612743 |      1612743 |xxxxxxxxxxxxx |xxxxxxxxxxxxx |xxxxxxxxxxxxx |xxxxxxxxxxxxx |      3517422 |      3517422 |      3517422 |xxxxxxxxxxxxx |xxxxxxxxxxxxx |xxxxxxxxxxxxx |xxxxxxxxxxxxx |      7425032 |      7425032 |      7425032 |xxxxxxxxxxxxx |xxxxxxxxxxxxx |xxxxxxxxxxxxx |xxxxxxxxxxxxx |     15569368 |     15569368 |     15569368 |xxxxxxxxxxxxx |xxxxxxxxxxxxx |xxxxxxxxxxxxx |xxxxxxxxxxxxx |     33442920 |     33442920 |     33442920 |xxxxxxxxxxxxx |xxxxxxxxxxxxx |xxxxxxxxxxxxx |xxxxxxxxxxxxx |     96338107 |     96338107 |     96338107 |xxxxxxxxxxxxx |xxxxxxxxxxxxx |xxxxxxxxxxxxx |xxxxxxxxxxxxx |    193597924 |    193597924 |    193597924 |
bpred_bimod.updates                          75475 |        75475 |        75475 |xxxxxxxxxxxxx |xxxxxxxxxxxxx |xxxxxxxxxxxxx |xxxxxxxxxxxxx |       163663 |       163663 |       163663 |xxxxxxxxxxxxx |xxxxxxxxxxxxx |xxxxxxxxxxxxx |xxxxxxxxxxxxx |       358772 |       358772 |       358772 |xxxxxxxxxxxxx |xxxxxxxxxxxxx |xxxxxxxxxxxxx |xxxxxxxxxxxxx |       770169 |       770169 |       770169 |xxxxxxxxxxxxx |xxxxxxxxxxxxx |xxxxxxxxxxxxx |xxxxxxxxxxxxx |      1612743 |      1612743 |      1612743 |xxxxxxxxxxxxx |xxxxxxxxxxxxx |xxxxxxxxxxxxx |xxxxxxxxxxxxx |      3517422 |      3517422 |      3517422 |xxxxxxxxxxxxx |xxxxxxxxxxxxx |xxxxxxxxxxxxx |xxxxxxxxxxxxx |      7425032 |      7425032 |      7425032 |xxxxxxxxxxxxx |xxxxxxxxxxxxx |xxxxxxxxxxxxx |xxxxxxxxxxxxx |     15569368 |     15569368 |     15569368 |xxxxxxxxxxxxx |xxxxxxxxxxxxx |xxxxxxxxxxxxx |xxxxxxxxxxxxx |     33442920 |     33442920 |     33442920 |xxxxxxxxxxxxx |xxxxxxxxxxxxx |xxxxxxxxxxxxx |xxxxxxxxxxxxx |     96338107 |     96338107 |     96338107 |xxxxxxxxxxxxx |xxxxxxxxxxxxx |xxxxxxxxxxxxx |xxxxxxxxxxxxx |    193597924 |    193597924 |    193597924 |
bpred_bimod.addr_hits                        53527 |        53525 |        53525 |xxxxxxxxxxxxx |xxxxxxxxxxxxx |xxxxxxxxxxxxx |xxxxxxxxxxxxx |       116802 |       116803 |       116807 |xxxxxxxxxxxxx |xxxxxxxxxxxxx |xxxxxxxxxxxxx |xxxxxxxxxxxxx |       260020 |       260019 |       260019 |xxxxxxxxxxxxx |xxxxxxxxxxxxx |xxxxxxxxxxxxx |xxxxxxxxxxxxx |       555236 |       555234 |       555234 |xxxxxxxxxxxxx |xxxxxxxxxxxxx |xxxxxxxxxxxxx |xxxxxxxxxxxxx |      1150394 |      1150391 |      1150391 |xxxxxxxxxxxxx |xxxxxxxxxxxxx |xxxxxxxxxxxxx |xxxxxxxxxxxxx |      2571471 |      2571470 |      2571470 |xxxxxxxxxxxxx |xxxxxxxxxxxxx |xxxxxxxxxxxxx |xxxxxxxxxxxxx |      5403599 |      5403599 |      5403599 |xxxxxxxxxxxxx |xxxxxxxxxxxxx |xxxxxxxxxxxxx |xxxxxxxxxxxxx |     11228758 |     11228756 |     11228756 |xxxxxxxxxxxxx |xxxxxxxxxxxxx |xxxxxxxxxxxxx |xxxxxxxxxxxxx |     24446393 |     24446393 |     24446393 |xxxxxxxxxxxxx |xxxxxxxxxxxxx |xxxxxxxxxxxxx |xxxxxxxxxxxxx |     75994986 |     75994992 |     75994993 |xxxxxxxxxxxxx |xxxxxxxxxxxxx |xxxxxxxxxxxxx |xxxxxxxxxxxxx |    150016729 |    150016736 |    150016737 |
bpred_bimod.dir_hits                         53643 |        53639 |        53638 |xxxxxxxxxxxxx |xxxxxxxxxxxxx |xxxxxxxxxxxxx |xxxxxxxxxxxxx |       116917 |       116916 |       116920 |xxxxxxxxxxxxx |xxxxxxxxxxxxx |xxxxxxxxxxxxx |xxxxxxxxxxxxx |       260136 |       260133 |       260132 |xxxxxxxxxxxxx |xxxxxxxxxxxxx |xxxxxxxxxxxxx |xxxxxxxxxxxxx |       555351 |       555347 |       555347 |xxxxxxxxxxxxx |xxxxxxxxxxxxx |xxxxxxxxxxxxx |xxxxxxxxxxxxx |      1150508 |      1150503 |      1150503 |xxxxxxxxxxxxx |xxxxxxxxxxxxx |xxxxxxxxxxxxx |xxxxxxxxxxxxx |      2571588 |      2571585 |      2571585 |xxxxxxxxxxxxx |xxxxxxxxxxxxx |xxxxxxxxxxxxx |xxxxxxxxxxxxx |      5403718 |      5403716 |      5403716 |xxxxxxxxxxxxx |xxxxxxxxxxxxx |xxxxxxxxxxxxx |xxxxxxxxxxxxx |     11228873 |     11228869 |     11228869 |xxxxxxxxxxxxx |xxxxxxxxxxxxx |xxxxxxxxxxxxx |xxxxxxxxxxxxx |     24446511 |     24446509 |     24446509 |xxxxxxxxxxxxx |xxxxxxxxxxxxx |xxxxxxxxxxxxx |xxxxxxxxxxxxx |     75995148 |     75995152 |     75995154 |xxxxxxxxxxxxx |xxxxxxxxxxxxx |xxxxxxxxxxxxx |xxxxxxxxxxxxx |    150016891 |    150016896 |    150016898 |
bpred_bimod.misses                           21832 |        21836 |        21837 |xxxxxxxxxxxxx |xxxxxxxxxxxxx |xxxxxxxxxxxxx |xxxxxxxxxxxxx |        46746 |        46747 |        46743 |xxxxxxxxxxxxx |xxxxxxxxxxxxx |xxxxxxxxxxxxx |xxxxxxxxxxxxx |        98636 |        98639 |        98640 |xxxxxxxxxxxxx |xxxxxxxxxxxxx |xxxxxxxxxxxxx |xxxxxxxxxxxxx |       214818 |       214822 |       214822 |xxxxxxxxxxxxx |xxxxxxxxxxxxx |xxxxxxxxxxxxx |xxxxxxxxxxxxx |       462235 |       462240 |       462240 |xxxxxxxxxxxxx |xxxxxxxxxxxxx |xxxxxxxxxxxxx |xxxxxxxxxxxxx |       945834 |       945837 |       945837 |xxxxxxxxxxxxx |xxxxxxxxxxxxx |xxxxxxxxxxxxx |xxxxxxxxxxxxx |      2021314 |      2021316 |      2021316 |xxxxxxxxxxxxx |xxxxxxxxxxxxx |xxxxxxxxxxxxx |xxxxxxxxxxxxx |      4340495 |      4340499 |      4340499 |xxxxxxxxxxxxx |xxxxxxxxxxxxx |xxxxxxxxxxxxx |xxxxxxxxxxxxx |      8996409 |      8996411 |      8996411 |xxxxxxxxxxxxx |xxxxxxxxxxxxx |xxxxxxxxxxxxx |xxxxxxxxxxxxx |     20342959 |     20342955 |     20342953 |xxxxxxxxxxxxx |xxxxxxxxxxxxx |xxxxxxxxxxxxx |xxxxxxxxxxxxx |     43581033 |     43581028 |     43581026 |
bpred_bimod.jr_hits                             65 |           65 |           65 |xxxxxxxxxxxxx |xxxxxxxxxxxxx |xxxxxxxxxxxxx |xxxxxxxxxxxxx |           65 |           65 |           65 |xxxxxxxxxxxxx |xxxxxxxxxxxxx |xxxxxxxxxxxxx |xxxxxxxxxxxxx |           65 |           65 |           65 |xxxxxxxxxxxxx |xxxxxxxxxxxxx |xxxxxxxxxxxxx |xxxxxxxxxxxxx |           65 |           65 |           65 |xxxxxxxxxxxxx |xxxxxxxxxxxxx |xxxxxxxxxxxxx |xxxxxxxxxxxxx |           65 |           65 |           65 |xxxxxxxxxxxxx |xxxxxxxxxxxxx |xxxxxxxxxxxxx |xxxxxxxxxxxxx |           65 |           65 |           65 |xxxxxxxxxxxxx |xxxxxxxxxxxxx |xxxxxxxxxxxxx |xxxxxxxxxxxxx |           65 |           65 |           65 |xxxxxxxxxxxxx |xxxxxxxxxxxxx |xxxxxxxxxxxxx |xxxxxxxxxxxxx |           65 |           65 |           65 |xxxxxxxxxxxxx |xxxxxxxxxxxxx |xxxxxxxxxxxxx |xxxxxxxxxxxxx |           65 |           65 |           65 |xxxxxxxxxxxxx |xxxxxxxxxxxxx |xxxxxxxxxxxxx |xxxxxxxxxxxxx |          111 |          111 |          111 |xxxxxxxxxxxxx |xxxxxxxxxxxxx |xxxxxxxxxxxxx |xxxxxxxxxxxxx |          123 |          123 |          123 |
bpred_bimod.jr_seen                             65 |           65 |           65 |xxxxxxxxxxxxx |xxxxxxxxxxxxx |xxxxxxxxxxxxx |xxxxxxxxxxxxx |           65 |           65 |           65 |xxxxxxxxxxxxx |xxxxxxxxxxxxx |xxxxxxxxxxxxx |xxxxxxxxxxxxx |           65 |           65 |           65 |xxxxxxxxxxxxx |xxxxxxxxxxxxx |xxxxxxxxxxxxx |xxxxxxxxxxxxx |           65 |           65 |           65 |xxxxxxxxxxxxx |xxxxxxxxxxxxx |xxxxxxxxxxxxx |xxxxxxxxxxxxx |           65 |           65 |           65 |xxxxxxxxxxxxx |xxxxxxxxxxxxx |xxxxxxxxxxxxx |xxxxxxxxxxxxx |           65 |           65 |           65 |xxxxxxxxxxxxx |xxxxxxxxxxxxx |xxxxxxxxxxxxx |xxxxxxxxxxxxx |           65 |           65 |           65 |xxxxxxxxxxxxx |xxxxxxxxxxxxx |xxxxxxxxxxxxx |xxxxxxxxxxxxx |           65 |           65 |           65 |xxxxxxxxxxxxx |xxxxxxxxxxxxx |xxxxxxxxxxxxx |xxxxxxxxxxxxx |           65 |           65 |           65 |xxxxxxxxxxxxx |xxxxxxxxxxxxx |xxxxxxxxxxxxx |xxxxxxxxxxxxx |          112 |          112 |          112 |xxxxxxxxxxxxx |xxxxxxxxxxxxx |xxxxxxxxxxxxx |xxxxxxxxxxxxx |          124 |          124 |          124 |
bpred_bimod.jr_non_ras_hits.PP                   0 |            0 |            0 |xxxxxxxxxxxxx |xxxxxxxxxxxxx |xxxxxxxxxxxxx |xxxxxxxxxxxxx |            0 |            0 |            0 |xxxxxxxxxxxxx |xxxxxxxxxxxxx |xxxxxxxxxxxxx |xxxxxxxxxxxxx |            0 |            0 |            0 |xxxxxxxxxxxxx |xxxxxxxxxxxxx |xxxxxxxxxxxxx |xxxxxxxxxxxxx |            0 |            0 |            0 |xxxxxxxxxxxxx |xxxxxxxxxxxxx |xxxxxxxxxxxxx |xxxxxxxxxxxxx |            0 |            0 |            0 |xxxxxxxxxxxxx |xxxxxxxxxxxxx |xxxxxxxxxxxxx |xxxxxxxxxxxxx |            0 |            0 |            0 |xxxxxxxxxxxxx |xxxxxxxxxxxxx |xxxxxxxxxxxxx |xxxxxxxxxxxxx |            0 |            0 |            0 |xxxxxxxxxxxxx |xxxxxxxxxxxxx |xxxxxxxxxxxxx |xxxxxxxxxxxxx |            0 |            0 |            0 |xxxxxxxxxxxxx |xxxxxxxxxxxxx |xxxxxxxxxxxxx |xxxxxxxxxxxxx |            0 |            0 |            0 |xxxxxxxxxxxxx |xxxxxxxxxxxxx |xxxxxxxxxxxxx |xxxxxxxxxxxxx |            0 |            0 |            0 |xxxxxxxxxxxxx |xxxxxxxxxxxxx |xxxxxxxxxxxxx |xxxxxxxxxxxxx |            0 |            0 |            0 |
bpred_bimod.jr_non_ras_seen.PP                   0 |            0 |            0 |xxxxxxxxxxxxx |xxxxxxxxxxxxx |xxxxxxxxxxxxx |xxxxxxxxxxxxx |            0 |            0 |            0 |xxxxxxxxxxxxx |xxxxxxxxxxxxx |xxxxxxxxxxxxx |xxxxxxxxxxxxx |            0 |            0 |            0 |xxxxxxxxxxxxx |xxxxxxxxxxxxx |xxxxxxxxxxxxx |xxxxxxxxxxxxx |            0 |            0 |            0 |xxxxxxxxxxxxx |xxxxxxxxxxxxx |xxxxxxxxxxxxx |xxxxxxxxxxxxx |            0 |            0 |            0 |xxxxxxxxxxxxx |xxxxxxxxxxxxx |xxxxxxxxxxxxx |xxxxxxxxxxxxx |            0 |            0 |            0 |xxxxxxxxxxxxx |xxxxxxxxxxxxx |xxxxxxxxxxxxx |xxxxxxxxxxxxx |            0 |            0 |            0 |xxxxxxxxxxxxx |xxxxxxxxxxxxx |xxxxxxxxxxxxx |xxxxxxxxxxxxx |            0 |            0 |            0 |xxxxxxxxxxxxx |xxxxxxxxxxxxx |xxxxxxxxxxxxx |xxxxxxxxxxxxx |            0 |            0 |            0 |xxxxxxxxxxxxx |xxxxxxxxxxxxx |xxxxxxxxxxxxx |xxxxxxxxxxxxx |            1 |            1 |            1 |xxxxxxxxxxxxx |xxxxxxxxxxxxx |xxxxxxxxxxxxx |xxxxxxxxxxxxx |            1 |            1 |            1 |
bpred_bimod.bpred_addr_rate                 0.7092 |       0.7092 |       0.7092 |xxxxxxxxxxxxx |xxxxxxxxxxxxx |xxxxxxxxxxxxx |xxxxxxxxxxxxx |       0.7137 |       0.7137 |       0.7137 |xxxxxxxxxxxxx |xxxxxxxxxxxxx |xxxxxxxxxxxxx |xxxxxxxxxxxxx |       0.7247 |       0.7247 |       0.7247 |xxxxxxxxxxxxx |xxxxxxxxxxxxx |xxxxxxxxxxxxx |xxxxxxxxxxxxx |       0.7209 |       0.7209 |       0.7209 |xxxxxxxxxxxxx |xxxxxxxxxxxxx |xxxxxxxxxxxxx |xxxxxxxxxxxxx |       0.7133 |       0.7133 |       0.7133 |xxxxxxxxxxxxx |xxxxxxxxxxxxx |xxxxxxxxxxxxx |xxxxxxxxxxxxx |       0.7311 |       0.7311 |       0.7311 |xxxxxxxxxxxxx |xxxxxxxxxxxxx |xxxxxxxxxxxxx |xxxxxxxxxxxxx |       0.7278 |       0.7278 |       0.7278 |xxxxxxxxxxxxx |xxxxxxxxxxxxx |xxxxxxxxxxxxx |xxxxxxxxxxxxx |       0.7212 |       0.7212 |       0.7212 |xxxxxxxxxxxxx |xxxxxxxxxxxxx |xxxxxxxxxxxxx |xxxxxxxxxxxxx |       0.7310 |       0.7310 |       0.7310 |xxxxxxxxxxxxx |xxxxxxxxxxxxx |xxxxxxxxxxxxx |xxxxxxxxxxxxx |       0.7888 |       0.7888 |       0.7888 |xxxxxxxxxxxxx |xxxxxxxxxxxxx |xxxxxxxxxxxxx |xxxxxxxxxxxxx |       0.7749 |       0.7749 |       0.7749 |
bpred_bimod.bpred_dir_rate                  0.7107 |       0.7107 |       0.7107 |xxxxxxxxxxxxx |xxxxxxxxxxxxx |xxxxxxxxxxxxx |xxxxxxxxxxxxx |       0.7144 |       0.7144 |       0.7144 |xxxxxxxxxxxxx |xxxxxxxxxxxxx |xxxxxxxxxxxxx |xxxxxxxxxxxxx |       0.7251 |       0.7251 |       0.7251 |xxxxxxxxxxxxx |xxxxxxxxxxxxx |xxxxxxxxxxxxx |xxxxxxxxxxxxx |       0.7211 |       0.7211 |       0.7211 |xxxxxxxxxxxxx |xxxxxxxxxxxxx |xxxxxxxxxxxxx |xxxxxxxxxxxxx |       0.7134 |       0.7134 |       0.7134 |xxxxxxxxxxxxx |xxxxxxxxxxxxx |xxxxxxxxxxxxx |xxxxxxxxxxxxx |       0.7311 |       0.7311 |       0.7311 |xxxxxxxxxxxxx |xxxxxxxxxxxxx |xxxxxxxxxxxxx |xxxxxxxxxxxxx |       0.7278 |       0.7278 |       0.7278 |xxxxxxxxxxxxx |xxxxxxxxxxxxx |xxxxxxxxxxxxx |xxxxxxxxxxxxx |       0.7212 |       0.7212 |       0.7212 |xxxxxxxxxxxxx |xxxxxxxxxxxxx |xxxxxxxxxxxxx |xxxxxxxxxxxxx |       0.7310 |       0.7310 |       0.7310 |xxxxxxxxxxxxx |xxxxxxxxxxxxx |xxxxxxxxxxxxx |xxxxxxxxxxxxx |       0.7888 |       0.7888 |       0.7888 |xxxxxxxxxxxxx |xxxxxxxxxxxxx |xxxxxxxxxxxxx |xxxxxxxxxxxxx |       0.7749 |       0.7749 |       0.7749 |
bpred_bimod.bpred_jr_rate                   1.0000 |       1.0000 |       1.0000 |xxxxxxxxxxxxx |xxxxxxxxxxxxx |xxxxxxxxxxxxx |xxxxxxxxxxxxx |       1.0000 |       1.0000 |       1.0000 |xxxxxxxxxxxxx |xxxxxxxxxxxxx |xxxxxxxxxxxxx |xxxxxxxxxxxxx |       1.0000 |       1.0000 |       1.0000 |xxxxxxxxxxxxx |xxxxxxxxxxxxx |xxxxxxxxxxxxx |xxxxxxxxxxxxx |       1.0000 |       1.0000 |       1.0000 |xxxxxxxxxxxxx |xxxxxxxxxxxxx |xxxxxxxxxxxxx |xxxxxxxxxxxxx |       1.0000 |       1.0000 |       1.0000 |xxxxxxxxxxxxx |xxxxxxxxxxxxx |xxxxxxxxxxxxx |xxxxxxxxxxxxx |       1.0000 |       1.0000 |       1.0000 |xxxxxxxxxxxxx |xxxxxxxxxxxxx |xxxxxxxxxxxxx |xxxxxxxxxxxxx |       1.0000 |       1.0000 |       1.0000 |xxxxxxxxxxxxx |xxxxxxxxxxxxx |xxxxxxxxxxxxx |xxxxxxxxxxxxx |       1.0000 |       1.0000 |       1.0000 |xxxxxxxxxxxxx |xxxxxxxxxxxxx |xxxxxxxxxxxxx |xxxxxxxxxxxxx |       1.0000 |       1.0000 |       1.0000 |xxxxxxxxxxxxx |xxxxxxxxxxxxx |xxxxxxxxxxxxx |xxxxxxxxxxxxx |       0.9911 |       0.9911 |       0.9911 |xxxxxxxxxxxxx |xxxxxxxxxxxxx |xxxxxxxxxxxxx |xxxxxxxxxxxxx |       0.9919 |       0.9919 |       0.9919 |
bpred_bimod.bpred_jr_non_ras_rate.PP       <error: |      <error: |      <error: |xxxxxxxxxxxxx |xxxxxxxxxxxxx |xxxxxxxxxxxxx |xxxxxxxxxxxxx |      <error: |      <error: |      <error: |xxxxxxxxxxxxx |xxxxxxxxxxxxx |xxxxxxxxxxxxx |xxxxxxxxxxxxx |      <error: |      <error: |      <error: |xxxxxxxxxxxxx |xxxxxxxxxxxxx |xxxxxxxxxxxxx |xxxxxxxxxxxxx |      <error: |      <error: |      <error: |xxxxxxxxxxxxx |xxxxxxxxxxxxx |xxxxxxxxxxxxx |xxxxxxxxxxxxx |      <error: |      <error: |      <error: |xxxxxxxxxxxxx |xxxxxxxxxxxxx |xxxxxxxxxxxxx |xxxxxxxxxxxxx |      <error: |      <error: |      <error: |xxxxxxxxxxxxx |xxxxxxxxxxxxx |xxxxxxxxxxxxx |xxxxxxxxxxxxx |      <error: |      <error: |      <error: |xxxxxxxxxxxxx |xxxxxxxxxxxxx |xxxxxxxxxxxxx |xxxxxxxxxxxxx |      <error: |      <error: |      <error: |xxxxxxxxxxxxx |xxxxxxxxxxxxx |xxxxxxxxxxxxx |xxxxxxxxxxxxx |      <error: |      <error: |      <error: |xxxxxxxxxxxxx |xxxxxxxxxxxxx |xxxxxxxxxxxxx |xxxxxxxxxxxxx |       0.0000 |       0.0000 |       0.0000 |xxxxxxxxxxxxx |xxxxxxxxxxxxx |xxxxxxxxxxxxx |xxxxxxxxxxxxx |       0.0000 |       0.0000 |       0.0000 |
bpred_bimod.retstack_pushes                     67 |           67 |           67 |xxxxxxxxxxxxx |xxxxxxxxxxxxx |xxxxxxxxxxxxx |xxxxxxxxxxxxx |           67 |           67 |           67 |xxxxxxxxxxxxx |xxxxxxxxxxxxx |xxxxxxxxxxxxx |xxxxxxxxxxxxx |           67 |           67 |           67 |xxxxxxxxxxxxx |xxxxxxxxxxxxx |xxxxxxxxxxxxx |xxxxxxxxxxxxx |           67 |           67 |           67 |xxxxxxxxxxxxx |xxxxxxxxxxxxx |xxxxxxxxxxxxx |xxxxxxxxxxxxx |           67 |           67 |           67 |xxxxxxxxxxxxx |xxxxxxxxxxxxx |xxxxxxxxxxxxx |xxxxxxxxxxxxx |           67 |           67 |           67 |xxxxxxxxxxxxx |xxxxxxxxxxxxx |xxxxxxxxxxxxx |xxxxxxxxxxxxx |           67 |           67 |           67 |xxxxxxxxxxxxx |xxxxxxxxxxxxx |xxxxxxxxxxxxx |xxxxxxxxxxxxx |           67 |           67 |           67 |xxxxxxxxxxxxx |xxxxxxxxxxxxx |xxxxxxxxxxxxx |xxxxxxxxxxxxx |           67 |           67 |           67 |xxxxxxxxxxxxx |xxxxxxxxxxxxx |xxxxxxxxxxxxx |xxxxxxxxxxxxx |          113 |          113 |          113 |xxxxxxxxxxxxx |xxxxxxxxxxxxx |xxxxxxxxxxxxx |xxxxxxxxxxxxx |          125 |          125 |          125 |
bpred_bimod.retstack_pops                       65 |           65 |           65 |xxxxxxxxxxxxx |xxxxxxxxxxxxx |xxxxxxxxxxxxx |xxxxxxxxxxxxx |           65 |           65 |           65 |xxxxxxxxxxxxx |xxxxxxxxxxxxx |xxxxxxxxxxxxx |xxxxxxxxxxxxx |           65 |           65 |           65 |xxxxxxxxxxxxx |xxxxxxxxxxxxx |xxxxxxxxxxxxx |xxxxxxxxxxxxx |           65 |           65 |           65 |xxxxxxxxxxxxx |xxxxxxxxxxxxx |xxxxxxxxxxxxx |xxxxxxxxxxxxx |           65 |           65 |           65 |xxxxxxxxxxxxx |xxxxxxxxxxxxx |xxxxxxxxxxxxx |xxxxxxxxxxxxx |           65 |           65 |           65 |xxxxxxxxxxxxx |xxxxxxxxxxxxx |xxxxxxxxxxxxx |xxxxxxxxxxxxx |           65 |           65 |           65 |xxxxxxxxxxxxx |xxxxxxxxxxxxx |xxxxxxxxxxxxx |xxxxxxxxxxxxx |           65 |           65 |           65 |xxxxxxxxxxxxx |xxxxxxxxxxxxx |xxxxxxxxxxxxx |xxxxxxxxxxxxx |           65 |           65 |           65 |xxxxxxxxxxxxx |xxxxxxxxxxxxx |xxxxxxxxxxxxx |xxxxxxxxxxxxx |          111 |          111 |          111 |xxxxxxxxxxxxx |xxxxxxxxxxxxx |xxxxxxxxxxxxx |xxxxxxxxxxxxx |          123 |          123 |          123 |
bpred_bimod.used_ras.PP                         65 |           65 |           65 |xxxxxxxxxxxxx |xxxxxxxxxxxxx |xxxxxxxxxxxxx |xxxxxxxxxxxxx |           65 |           65 |           65 |xxxxxxxxxxxxx |xxxxxxxxxxxxx |xxxxxxxxxxxxx |xxxxxxxxxxxxx |           65 |           65 |           65 |xxxxxxxxxxxxx |xxxxxxxxxxxxx |xxxxxxxxxxxxx |xxxxxxxxxxxxx |           65 |           65 |           65 |xxxxxxxxxxxxx |xxxxxxxxxxxxx |xxxxxxxxxxxxx |xxxxxxxxxxxxx |           65 |           65 |           65 |xxxxxxxxxxxxx |xxxxxxxxxxxxx |xxxxxxxxxxxxx |xxxxxxxxxxxxx |           65 |           65 |           65 |xxxxxxxxxxxxx |xxxxxxxxxxxxx |xxxxxxxxxxxxx |xxxxxxxxxxxxx |           65 |           65 |           65 |xxxxxxxxxxxxx |xxxxxxxxxxxxx |xxxxxxxxxxxxx |xxxxxxxxxxxxx |           65 |           65 |           65 |xxxxxxxxxxxxx |xxxxxxxxxxxxx |xxxxxxxxxxxxx |xxxxxxxxxxxxx |           65 |           65 |           65 |xxxxxxxxxxxxx |xxxxxxxxxxxxx |xxxxxxxxxxxxx |xxxxxxxxxxxxx |          111 |          111 |          111 |xxxxxxxxxxxxx |xxxxxxxxxxxxx |xxxxxxxxxxxxx |xxxxxxxxxxxxx |          123 |          123 |          123 |
bpred_bimod.ras_hits.PP                         65 |           65 |           65 |xxxxxxxxxxxxx |xxxxxxxxxxxxx |xxxxxxxxxxxxx |xxxxxxxxxxxxx |           65 |           65 |           65 |xxxxxxxxxxxxx |xxxxxxxxxxxxx |xxxxxxxxxxxxx |xxxxxxxxxxxxx |           65 |           65 |           65 |xxxxxxxxxxxxx |xxxxxxxxxxxxx |xxxxxxxxxxxxx |xxxxxxxxxxxxx |           65 |           65 |           65 |xxxxxxxxxxxxx |xxxxxxxxxxxxx |xxxxxxxxxxxxx |xxxxxxxxxxxxx |           65 |           65 |           65 |xxxxxxxxxxxxx |xxxxxxxxxxxxx |xxxxxxxxxxxxx |xxxxxxxxxxxxx |           65 |           65 |           65 |xxxxxxxxxxxxx |xxxxxxxxxxxxx |xxxxxxxxxxxxx |xxxxxxxxxxxxx |           65 |           65 |           65 |xxxxxxxxxxxxx |xxxxxxxxxxxxx |xxxxxxxxxxxxx |xxxxxxxxxxxxx |           65 |           65 |           65 |xxxxxxxxxxxxx |xxxxxxxxxxxxx |xxxxxxxxxxxxx |xxxxxxxxxxxxx |           65 |           65 |           65 |xxxxxxxxxxxxx |xxxxxxxxxxxxx |xxxxxxxxxxxxx |xxxxxxxxxxxxx |          111 |          111 |          111 |xxxxxxxxxxxxx |xxxxxxxxxxxxx |xxxxxxxxxxxxx |xxxxxxxxxxxxx |          123 |          123 |          123 |
bpred_bimod.ras_rate.PP                     1.0000 |       1.0000 |       1.0000 |xxxxxxxxxxxxx |xxxxxxxxxxxxx |xxxxxxxxxxxxx |xxxxxxxxxxxxx |       1.0000 |       1.0000 |       1.0000 |xxxxxxxxxxxxx |xxxxxxxxxxxxx |xxxxxxxxxxxxx |xxxxxxxxxxxxx |       1.0000 |       1.0000 |       1.0000 |xxxxxxxxxxxxx |xxxxxxxxxxxxx |xxxxxxxxxxxxx |xxxxxxxxxxxxx |       1.0000 |       1.0000 |       1.0000 |xxxxxxxxxxxxx |xxxxxxxxxxxxx |xxxxxxxxxxxxx |xxxxxxxxxxxxx |       1.0000 |       1.0000 |       1.0000 |xxxxxxxxxxxxx |xxxxxxxxxxxxx |xxxxxxxxxxxxx |xxxxxxxxxxxxx |       1.0000 |       1.0000 |       1.0000 |xxxxxxxxxxxxx |xxxxxxxxxxxxx |xxxxxxxxxxxxx |xxxxxxxxxxxxx |       1.0000 |       1.0000 |       1.0000 |xxxxxxxxxxxxx |xxxxxxxxxxxxx |xxxxxxxxxxxxx |xxxxxxxxxxxxx |       1.0000 |       1.0000 |       1.0000 |xxxxxxxxxxxxx |xxxxxxxxxxxxx |xxxxxxxxxxxxx |xxxxxxxxxxxxx |       1.0000 |       1.0000 |       1.0000 |xxxxxxxxxxxxx |xxxxxxxxxxxxx |xxxxxxxxxxxxx |xxxxxxxxxxxxx |       1.0000 |       1.0000 |       1.0000 |xxxxxxxxxxxxx |xxxxxxxxxxxxx |xxxxxxxxxxxxx |xxxxxxxxxxxxx |       1.0000 |       1.0000 |       1.0000 |
bpred_2lev.lookups                   xxxxxxxxxxxxx |xxxxxxxxxxxxx |xxxxxxxxxxxxx |        75475 |        75475 |        75475 |        75475 |xxxxxxxxxxxxx |xxxxxxxxxxxxx |xxxxxxxxxxxxx |       163663 |       163663 |       163663 |       163663 |xxxxxxxxxxxxx |xxxxxxxxxxxxx |xxxxxxxxxxxxx |       358772 |       358772 |       358772 |       358772 |xxxxxxxxxxxxx |xxxxxxxxxxxxx |xxxxxxxxxxxxx |       770169 |       770169 |       770169 |       770169 |xxxxxxxxxxxxx |xxxxxxxxxxxxx |xxxxxxxxxxxxx |      1612743 |      1612743 |      1612743 |      1612743 |xxxxxxxxxxxxx |xxxxxxxxxxxxx |xxxxxxxxxxxxx |      3517422 |      3517422 |      3517422 |      3517422 |xxxxxxxxxxxxx |xxxxxxxxxxxxx |xxxxxxxxxxxxx |      7425032 |      7425032 |      7425032 |      7425032 |xxxxxxxxxxxxx |xxxxxxxxxxxxx |xxxxxxxxxxxxx |     15569368 |     15569368 |     15569368 |     15569368 |xxxxxxxxxxxxx |xxxxxxxxxxxxx |xxxxxxxxxxxxx |     33442920 |     33442920 |     33442920 |     33442920 |xxxxxxxxxxxxx |xxxxxxxxxxxxx |xxxxxxxxxxxxx |     96338107 |     96338107 |     96338107 |     96338107 |xxxxxxxxxxxxx |xxxxxxxxxxxxx |xxxxxxxxxxxxx |    193597924 |    193597924 |    193597924 |    193597924 |
[...]
bpred_2lev.retstack_pushes           xxxxxxxxxxxxx |xxxxxxxxxxxxx |xxxxxxxxxxxxx |           67 |           67 |           67 |           67 |xxxxxxxxxxxxx |xxxxxxxxxxxxx |xxxxxxxxxxxxx |           67 |           67 |           67 |           67 |xxxxxxxxxxxxx |xxxxxxxxxxxxx |xxxxxxxxxxxxx |           67 |           67 |           67 |           67 |xxxxxxxxxxxxx |xxxxxxxxxxxxx |xxxxxxxxxxxxx |           67 |           67 |           67 |           67 |xxxxxxxxxxxxx |xxxxxxxxxxxxx |xxxxxxxxxxxxx |           67 |           67 |           67 |           67 |xxxxxxxxxxxxx |xxxxxxxxxxxxx |xxxxxxxxxxxxx |           67 |           67 |           67 |           67 |xxxxxxxxxxxxx |xxxxxxxxxxxxx |xxxxxxxxxxxxx |           67 |           67 |           67 |           67 |xxxxxxxxxxxxx |xxxxxxxxxxxxx |xxxxxxxxxxxxx |           67 |           67 |           67 |           67 |xxxxxxxxxxxxx |xxxxxxxxxxxxx |xxxxxxxxxxxxx |           67 |           67 |           67 |           67 |xxxxxxxxxxxxx |xxxxxxxxxxxxx |xxxxxxxxxxxxx |          113 |          113 |          113 |          113 |xxxxxxxxxxxxx |xxxxxxxxxxxxx |xxxxxxxxxxxxx |          125 |          125 |          125 |          125 |
bpred_2lev.retstack_pops             xxxxxxxxxxxxx |xxxxxxxxxxxxx |xxxxxxxxxxxxx |           65 |           65 |           65 |           65 |xxxxxxxxxxxxx |xxxxxxxxxxxxx |xxxxxxxxxxxxx |           65 |           65 |           65 |           65 |xxxxxxxxxxxxx |xxxxxxxxxxxxx |xxxxxxxxxxxxx |           65 |           65 |           65 |           65 |xxxxxxxxxxxxx |xxxxxxxxxxxxx |xxxxxxxxxxxxx |           65 |           65 |           65 |           65 |xxxxxxxxxxxxx |xxxxxxxxxxxxx |xxxxxxxxxxxxx |           65 |           65 |           65 |           65 |xxxxxxxxxxxxx |xxxxxxxxxxxxx |xxxxxxxxxxxxx |           65 |           65 |           65 |           65 |xxxxxxxxxxxxx |xxxxxxxxxxxxx |xxxxxxxxxxxxx |           65 |           65 |           65 |           65 |xxxxxxxxxxxxx |xxxxxxxxxxxxx |xxxxxxxxxxxxx |           65 |           65 |           65 |           65 |xxxxxxxxxxxxx |xxxxxxxxxxxxx |xxxxxxxxxxxxx |           65 |           65 |           65 |           65 |xxxxxxxxxxxxx |xxxxxxxxxxxxx |xxxxxxxxxxxxx |          111 |          111 |          111 |          111 |xxxxxxxxxxxxx |xxxxxxxxxxxxx |xxxxxxxxxxxxx |          123 |          123 |          123 |          123 |
bpred_2lev.used_ras.PP               xxxxxxxxxxxxx |xxxxxxxxxxxxx |xxxxxxxxxxxxx |           65 |           65 |           65 |           65 |xxxxxxxxxxxxx |xxxxxxxxxxxxx |xxxxxxxxxxxxx |           65 |           65 |           65 |           65 |xxxxxxxxxxxxx |xxxxxxxxxxxxx |xxxxxxxxxxxxx |           65 |           65 |           65 |           65 |xxxxxxxxxxxxx |xxxxxxxxxxxxx |xxxxxxxxxxxxx |           65 |           65 |           65 |           65 |xxxxxxxxxxxxx |xxxxxxxxxxxxx |xxxxxxxxxxxxx |           65 |           65 |           65 |           65 |xxxxxxxxxxxxx |xxxxxxxxxxxxx |xxxxxxxxxxxxx |           65 |           65 |           65 |           65 |xxxxxxxxxxxxx |xxxxxxxxxxxxx |xxxxxxxxxxxxx |           65 |           65 |           65 |           65 |xxxxxxxxxxxxx |xxxxxxxxxxxxx |xxxxxxxxxxxxx |           65 |           65 |           65 |           65 |xxxxxxxxxxxxx |xxxxxxxxxxxxx |xxxxxxxxxxxxx |           65 |           65 |           65 |           65 |xxxxxxxxxxxxx |xxxxxxxxxxxxx |xxxxxxxxxxxxx |          111 |          111 |          111 |          111 |xxxxxxxxxxxxx |xxxxxxxxxxxxx |xxxxxxxxxxxxx |          123 |          123 |          123 |          123 |
bpred_2lev.ras_hits.PP               xxxxxxxxxxxxx |xxxxxxxxxxxxx |xxxxxxxxxxxxx |           65 |           65 |           65 |           65 |xxxxxxxxxxxxx |xxxxxxxxxxxxx |xxxxxxxxxxxxx |           65 |           65 |           65 |           65 |xxxxxxxxxxxxx |xxxxxxxxxxxxx |xxxxxxxxxxxxx |           65 |           65 |           65 |           65 |xxxxxxxxxxxxx |xxxxxxxxxxxxx |xxxxxxxxxxxxx |           65 |           65 |           65 |           65 |xxxxxxxxxxxxx |xxxxxxxxxxxxx |xxxxxxxxxxxxx |           65 |           65 |           65 |           65 |xxxxxxxxxxxxx |xxxxxxxxxxxxx |xxxxxxxxxxxxx |           65 |           65 |           65 |           65 |xxxxxxxxxxxxx |xxxxxxxxxxxxx |xxxxxxxxxxxxx |           65 |           65 |           65 |           65 |xxxxxxxxxxxxx |xxxxxxxxxxxxx |xxxxxxxxxxxxx |           65 |           65 |           65 |           65 |xxxxxxxxxxxxx |xxxxxxxxxxxxx |xxxxxxxxxxxxx |           65 |           65 |           65 |           65 |xxxxxxxxxxxxx |xxxxxxxxxxxxx |xxxxxxxxxxxxx |          111 |          111 |          111 |          111 |xxxxxxxxxxxxx |xxxxxxxxxxxxx |xxxxxxxxxxxxx |          123 |          123 |          123 |          123 |
bpred_2lev.ras_rate.PP               xxxxxxxxxxxxx |xxxxxxxxxxxxx |xxxxxxxxxxxxx |       1.0000 |       1.0000 |       1.0000 |       1.0000 |xxxxxxxxxxxxx |xxxxxxxxxxxxx |xxxxxxxxxxxxx |       1.0000 |       1.0000 |       1.0000 |       1.0000 |xxxxxxxxxxxxx |xxxxxxxxxxxxx |xxxxxxxxxxxxx |       1.0000 |       1.0000 |       1.0000 |       1.0000 |xxxxxxxxxxxxx |xxxxxxxxxxxxx |xxxxxxxxxxxxx |       1.0000 |       1.0000 |       1.0000 |       1.0000 |xxxxxxxxxxxxx |xxxxxxxxxxxxx |xxxxxxxxxxxxx |       1.0000 |       1.0000 |       1.0000 |       1.0000 |xxxxxxxxxxxxx |xxxxxxxxxxxxx |xxxxxxxxxxxxx |       1.0000 |       1.0000 |       1.0000 |       1.0000 |xxxxxxxxxxxxx |xxxxxxxxxxxxx |xxxxxxxxxxxxx |       1.0000 |       1.0000 |       1.0000 |       1.0000 |xxxxxxxxxxxxx |xxxxxxxxxxxxx |xxxxxxxxxxxxx |       1.0000 |       1.0000 |       1.0000 |       1.0000 |xxxxxxxxxxxxx |xxxxxxxxxxxxx |xxxxxxxxxxxxx |       1.0000 |       1.0000 |       1.0000 |       1.0000 |xxxxxxxxxxxxx |xxxxxxxxxxxxx |xxxxxxxxxxxxx |       1.0000 |       1.0000 |       1.0000 |       1.0000 |xxxxxxxxxxxxx |xxxxxxxxxxxxx |xxxxxxxxxxxxx |       1.0000 |       1.0000 |       1.0000 |       1.0000 |

Command list: 
	sslittle-na-sstrix-gcc -Wall -O3 -funroll-loops -finline-functions  -DRANDOM_SIZE=4096 -DOFFSET=1 -DSORT=multi_quicksort sorts/multi_quicksort1076659013.c simpleMain.c -o multi_quicksort129875842
	sim-cache -cache:dl1 dl1:256:32:1:l -cache:dl2 dl2:131072:32:1:l -cache:il1 il1:256:32:1:l -cache:il2 dl2 multi_quicksort129875842
	sim-cache -cache:dl1 dl1:256:32:1:l -cache:dl2 dl2:65536:32:1:l -cache:il1 il1:256:32:1:l -cache:il2 dl2 multi_quicksort129875842
	sim-cache -cache:dl1 dl1:1:32:256:l -cache:dl2 dl2:1:32:131072:l -cache:il1 il1:1:32:256:l -cache:il2 dl2 multi_quicksort129875842
	sim-cache -cache:dl1 dl1:1:32:256:l -cache:dl2 dl2:1:32:65536:l -cache:il1 il1:1:32:256:l -cache:il2 dl2 multi_quicksort129875842
	sim-bpred -bpred bimod -bpred:bimod 512 multi_quicksort129875842
	sim-bpred -bpred bimod -bpred:bimod 1024 multi_quicksort129875842
	sim-bpred -bpred bimod -bpred:bimod 2048 multi_quicksort129875842
	sim-bpred -bpred 2lev -bpred:2lev 1 512 10 1 multi_quicksort129875842
	sim-bpred -bpred 2lev -bpred:2lev 1 1024 10 1 multi_quicksort129875842
	sim-bpred -bpred 2lev -bpred:2lev 1 2048 10 1 multi_quicksort129875842
	sim-bpred -bpred 2lev -bpred:2lev 1 4096 10 1 multi_quicksort129875842
	sslittle-na-sstrix-gcc -Wall -O3 -funroll-loops -finline-functions  -DRANDOM_SIZE=8192 -DOFFSET=1 -DSORT=multi_quicksort sorts/multi_quicksort1076659013.c simpleMain.c -o multi_quicksort129875842
	sim-cache -cache:dl1 dl1:256:32:1:l -cache:dl2 dl2:131072:32:1:l -cache:il1 il1:256:32:1:l -cache:il2 dl2 multi_quicksort129875842
	sim-cache -cache:dl1 dl1:256:32:1:l -cache:dl2 dl2:65536:32:1:l -cache:il1 il1:256:32:1:l -cache:il2 dl2 multi_quicksort129875842
	sim-cache -cache:dl1 dl1:1:32:256:l -cache:dl2 dl2:1:32:131072:l -cache:il1 il1:1:32:256:l -cache:il2 dl2 multi_quicksort129875842
	sim-cache -cache:dl1 dl1:1:32:256:l -cache:dl2 dl2:1:32:65536:l -cache:il1 il1:1:32:256:l -cache:il2 dl2 multi_quicksort129875842
	sim-bpred -bpred bimod -bpred:bimod 512 multi_quicksort129875842
	sim-bpred -bpred bimod -bpred:bimod 1024 multi_quicksort129875842
	sim-bpred -bpred bimod -bpred:bimod 2048 multi_quicksort129875842
	sim-bpred -bpred 2lev -bpred:2lev 1 512 10 1 multi_quicksort129875842
	sim-bpred -bpred 2lev -bpred:2lev 1 1024 10 1 multi_quicksort129875842
	sim-bpred -bpred 2lev -bpred:2lev 1 2048 10 1 multi_quicksort129875842
	sim-bpred -bpred 2lev -bpred:2lev 1 4096 10 1 multi_quicksort129875842
	sslittle-na-sstrix-gcc -Wall -O3 -funroll-loops -finline-functions  -DRANDOM_SIZE=16384 -DOFFSET=1 -DSORT=multi_quicksort sorts/multi_quicksort1076659013.c simpleMain.c -o multi_quicksort129875842
	sim-cache -cache:dl1 dl1:256:32:1:l -cache:dl2 dl2:131072:32:1:l -cache:il1 il1:256:32:1:l -cache:il2 dl2 multi_quicksort129875842
	sim-cache -cache:dl1 dl1:256:32:1:l -cache:dl2 dl2:65536:32:1:l -cache:il1 il1:256:32:1:l -cache:il2 dl2 multi_quicksort129875842
	sim-cache -cache:dl1 dl1:1:32:256:l -cache:dl2 dl2:1:32:131072:l -cache:il1 il1:1:32:256:l -cache:il2 dl2 multi_quicksort129875842
	sim-cache -cache:dl1 dl1:1:32:256:l -cache:dl2 dl2:1:32:65536:l -cache:il1 il1:1:32:256:l -cache:il2 dl2 multi_quicksort129875842
	sim-bpred -bpred bimod -bpred:bimod 512 multi_quicksort129875842
	sim-bpred -bpred bimod -bpred:bimod 1024 multi_quicksort129875842
	sim-bpred -bpred bimod -bpred:bimod 2048 multi_quicksort129875842
	sim-bpred -bpred 2lev -bpred:2lev 1 512 10 1 multi_quicksort129875842
	sim-bpred -bpred 2lev -bpred:2lev 1 1024 10 1 multi_quicksort129875842
	sim-bpred -bpred 2lev -bpred:2lev 1 2048 10 1 multi_quicksort129875842
	sim-bpred -bpred 2lev -bpred:2lev 1 4096 10 1 multi_quicksort129875842
	sslittle-na-sstrix-gcc -Wall -O3 -funroll-loops -finline-functions  -DRANDOM_SIZE=32768 -DOFFSET=1 -DSORT=multi_quicksort sorts/multi_quicksort1076659013.c simpleMain.c -o multi_quicksort129875842
	sim-cache -cache:dl1 dl1:256:32:1:l -cache:dl2 dl2:131072:32:1:l -cache:il1 il1:256:32:1:l -cache:il2 dl2 multi_quicksort129875842
	sim-cache -cache:dl1 dl1:256:32:1:l -cache:dl2 dl2:65536:32:1:l -cache:il1 il1:256:32:1:l -cache:il2 dl2 multi_quicksort129875842
	sim-cache -cache:dl1 dl1:1:32:256:l -cache:dl2 dl2:1:32:131072:l -cache:il1 il1:1:32:256:l -cache:il2 dl2 multi_quicksort129875842
	sim-cache -cache:dl1 dl1:1:32:256:l -cache:dl2 dl2:1:32:65536:l -cache:il1 il1:1:32:256:l -cache:il2 dl2 multi_quicksort129875842
	sim-bpred -bpred bimod -bpred:bimod 512 multi_quicksort129875842
	sim-bpred -bpred bimod -bpred:bimod 1024 multi_quicksort129875842
	sim-bpred -bpred bimod -bpred:bimod 2048 multi_quicksort129875842
	sim-bpred -bpred 2lev -bpred:2lev 1 512 10 1 multi_quicksort129875842
	sim-bpred -bpred 2lev -bpred:2lev 1 1024 10 1 multi_quicksort129875842
	sim-bpred -bpred 2lev -bpred:2lev 1 2048 10 1 multi_quicksort129875842
	sim-bpred -bpred 2lev -bpred:2lev 1 4096 10 1 multi_quicksort129875842
	sslittle-na-sstrix-gcc -Wall -O3 -funroll-loops -finline-functions  -DRANDOM_SIZE=65536 -DOFFSET=1 -DSORT=multi_quicksort sorts/multi_quicksort1076659013.c simpleMain.c -o multi_quicksort129875842
	sim-cache -cache:dl1 dl1:256:32:1:l -cache:dl2 dl2:131072:32:1:l -cache:il1 il1:256:32:1:l -cache:il2 dl2 multi_quicksort129875842
	sim-cache -cache:dl1 dl1:256:32:1:l -cache:dl2 dl2:65536:32:1:l -cache:il1 il1:256:32:1:l -cache:il2 dl2 multi_quicksort129875842
	sim-cache -cache:dl1 dl1:1:32:256:l -cache:dl2 dl2:1:32:131072:l -cache:il1 il1:1:32:256:l -cache:il2 dl2 multi_quicksort129875842
	sim-cache -cache:dl1 dl1:1:32:256:l -cache:dl2 dl2:1:32:65536:l -cache:il1 il1:1:32:256:l -cache:il2 dl2 multi_quicksort129875842
	sim-bpred -bpred bimod -bpred:bimod 512 multi_quicksort129875842
	sim-bpred -bpred bimod -bpred:bimod 1024 multi_quicksort129875842
	sim-bpred -bpred bimod -bpred:bimod 2048 multi_quicksort129875842
	sim-bpred -bpred 2lev -bpred:2lev 1 512 10 1 multi_quicksort129875842
	sim-bpred -bpred 2lev -bpred:2lev 1 1024 10 1 multi_quicksort129875842
	sim-bpred -bpred 2lev -bpred:2lev 1 2048 10 1 multi_quicksort129875842
	sim-bpred -bpred 2lev -bpred:2lev 1 4096 10 1 multi_quicksort129875842
	sslittle-na-sstrix-gcc -Wall -O3 -funroll-loops -finline-functions  -DRANDOM_SIZE=131072 -DOFFSET=1 -DSORT=multi_quicksort sorts/multi_quicksort1076659013.c simpleMain.c -o multi_quicksort129875842
	sim-cache -cache:dl1 dl1:256:32:1:l -cache:dl2 dl2:131072:32:1:l -cache:il1 il1:256:32:1:l -cache:il2 dl2 multi_quicksort129875842
	sim-cache -cache:dl1 dl1:256:32:1:l -cache:dl2 dl2:65536:32:1:l -cache:il1 il1:256:32:1:l -cache:il2 dl2 multi_quicksort129875842
	sim-cache -cache:dl1 dl1:1:32:256:l -cache:dl2 dl2:1:32:131072:l -cache:il1 il1:1:32:256:l -cache:il2 dl2 multi_quicksort129875842
	sim-cache -cache:dl1 dl1:1:32:256:l -cache:dl2 dl2:1:32:65536:l -cache:il1 il1:1:32:256:l -cache:il2 dl2 multi_quicksort129875842
	sim-bpred -bpred bimod -bpred:bimod 512 multi_quicksort129875842
	sim-bpred -bpred bimod -bpred:bimod 1024 multi_quicksort129875842
	sim-bpred -bpred bimod -bpred:bimod 2048 multi_quicksort129875842
	sim-bpred -bpred 2lev -bpred:2lev 1 512 10 1 multi_quicksort129875842
	sim-bpred -bpred 2lev -bpred:2lev 1 1024 10 1 multi_quicksort129875842
	sim-bpred -bpred 2lev -bpred:2lev 1 2048 10 1 multi_quicksort129875842
	sim-bpred -bpred 2lev -bpred:2lev 1 4096 10 1 multi_quicksort129875842
	sslittle-na-sstrix-gcc -Wall -O3 -funroll-loops -finline-functions  -DRANDOM_SIZE=262144 -DOFFSET=1 -DSORT=multi_quicksort sorts/multi_quicksort1076659013.c simpleMain.c -o multi_quicksort129875842
	sim-cache -cache:dl1 dl1:256:32:1:l -cache:dl2 dl2:131072:32:1:l -cache:il1 il1:256:32:1:l -cache:il2 dl2 multi_quicksort129875842
	sim-cache -cache:dl1 dl1:256:32:1:l -cache:dl2 dl2:65536:32:1:l -cache:il1 il1:256:32:1:l -cache:il2 dl2 multi_quicksort129875842
	sim-cache -cache:dl1 dl1:1:32:256:l -cache:dl2 dl2:1:32:131072:l -cache:il1 il1:1:32:256:l -cache:il2 dl2 multi_quicksort129875842
	sim-cache -cache:dl1 dl1:1:32:256:l -cache:dl2 dl2:1:32:65536:l -cache:il1 il1:1:32:256:l -cache:il2 dl2 multi_quicksort129875842
	sim-bpred -bpred bimod -bpred:bimod 512 multi_quicksort129875842
	sim-bpred -bpred bimod -bpred:bimod 1024 multi_quicksort129875842
	sim-bpred -bpred bimod -bpred:bimod 2048 multi_quicksort129875842
	sim-bpred -bpred 2lev -bpred:2lev 1 512 10 1 multi_quicksort129875842
	sim-bpred -bpred 2lev -bpred:2lev 1 1024 10 1 multi_quicksort129875842
	sim-bpred -bpred 2lev -bpred:2lev 1 2048 10 1 multi_quicksort129875842
	sim-bpred -bpred 2lev -bpred:2lev 1 4096 10 1 multi_quicksort129875842
	sslittle-na-sstrix-gcc -Wall -O3 -funroll-loops -finline-functions  -DRANDOM_SIZE=524288 -DOFFSET=1 -DSORT=multi_quicksort sorts/multi_quicksort1076659013.c simpleMain.c -o multi_quicksort129875842
	sim-cache -cache:dl1 dl1:256:32:1:l -cache:dl2 dl2:131072:32:1:l -cache:il1 il1:256:32:1:l -cache:il2 dl2 multi_quicksort129875842
	sim-cache -cache:dl1 dl1:256:32:1:l -cache:dl2 dl2:65536:32:1:l -cache:il1 il1:256:32:1:l -cache:il2 dl2 multi_quicksort129875842
	sim-cache -cache:dl1 dl1:1:32:256:l -cache:dl2 dl2:1:32:131072:l -cache:il1 il1:1:32:256:l -cache:il2 dl2 multi_quicksort129875842
	sim-cache -cache:dl1 dl1:1:32:256:l -cache:dl2 dl2:1:32:65536:l -cache:il1 il1:1:32:256:l -cache:il2 dl2 multi_quicksort129875842
	sim-bpred -bpred bimod -bpred:bimod 512 multi_quicksort129875842
	sim-bpred -bpred bimod -bpred:bimod 1024 multi_quicksort129875842
	sim-bpred -bpred bimod -bpred:bimod 2048 multi_quicksort129875842
	sim-bpred -bpred 2lev -bpred:2lev 1 512 10 1 multi_quicksort129875842
	sim-bpred -bpred 2lev -bpred:2lev 1 1024 10 1 multi_quicksort129875842
	sim-bpred -bpred 2lev -bpred:2lev 1 2048 10 1 multi_quicksort129875842
	sim-bpred -bpred 2lev -bpred:2lev 1 4096 10 1 multi_quicksort129875842
	sslittle-na-sstrix-gcc -Wall -O3 -funroll-loops -finline-functions  -DRANDOM_SIZE=1048576 -DOFFSET=1 -DSORT=multi_quicksort sorts/multi_quicksort1076659013.c simpleMain.c -o multi_quicksort129875842
	sim-cache -cache:dl1 dl1:256:32:1:l -cache:dl2 dl2:131072:32:1:l -cache:il1 il1:256:32:1:l -cache:il2 dl2 multi_quicksort129875842
	sim-cache -cache:dl1 dl1:256:32:1:l -cache:dl2 dl2:65536:32:1:l -cache:il1 il1:256:32:1:l -cache:il2 dl2 multi_quicksort129875842
	sim-cache -cache:dl1 dl1:1:32:256:l -cache:dl2 dl2:1:32:131072:l -cache:il1 il1:1:32:256:l -cache:il2 dl2 multi_quicksort129875842
	sim-cache -cache:dl1 dl1:1:32:256:l -cache:dl2 dl2:1:32:65536:l -cache:il1 il1:1:32:256:l -cache:il2 dl2 multi_quicksort129875842
	sim-bpred -bpred bimod -bpred:bimod 512 multi_quicksort129875842
	sim-bpred -bpred bimod -bpred:bimod 1024 multi_quicksort129875842
	sim-bpred -bpred bimod -bpred:bimod 2048 multi_quicksort129875842
	sim-bpred -bpred 2lev -bpred:2lev 1 512 10 1 multi_quicksort129875842
	sim-bpred -bpred 2lev -bpred:2lev 1 1024 10 1 multi_quicksort129875842
	sim-bpred -bpred 2lev -bpred:2lev 1 2048 10 1 multi_quicksort129875842
	sim-bpred -bpred 2lev -bpred:2lev 1 4096 10 1 multi_quicksort129875842
	sslittle-na-sstrix-gcc -Wall -O3 -funroll-loops -finline-functions  -DRANDOM_SIZE=2097152 -DOFFSET=1 -DSORT=multi_quicksort sorts/multi_quicksort1076659013.c simpleMain.c -o multi_quicksort129875842
	sim-cache -cache:dl1 dl1:256:32:1:l -cache:dl2 dl2:131072:32:1:l -cache:il1 il1:256:32:1:l -cache:il2 dl2 multi_quicksort129875842
	sim-cache -cache:dl1 dl1:256:32:1:l -cache:dl2 dl2:65536:32:1:l -cache:il1 il1:256:32:1:l -cache:il2 dl2 multi_quicksort129875842
	sim-cache -cache:dl1 dl1:1:32:256:l -cache:dl2 dl2:1:32:131072:l -cache:il1 il1:1:32:256:l -cache:il2 dl2 multi_quicksort129875842
	sim-cache -cache:dl1 dl1:1:32:256:l -cache:dl2 dl2:1:32:65536:l -cache:il1 il1:1:32:256:l -cache:il2 dl2 multi_quicksort129875842
	sim-bpred -bpred bimod -bpred:bimod 512 multi_quicksort129875842
	sim-bpred -bpred bimod -bpred:bimod 1024 multi_quicksort129875842
	sim-bpred -bpred bimod -bpred:bimod 2048 multi_quicksort129875842
	sim-bpred -bpred 2lev -bpred:2lev 1 512 10 1 multi_quicksort129875842
	sim-bpred -bpred 2lev -bpred:2lev 1 1024 10 1 multi_quicksort129875842
	sim-bpred -bpred 2lev -bpred:2lev 1 2048 10 1 multi_quicksort129875842
	sim-bpred -bpred 2lev -bpred:2lev 1 4096 10 1 multi_quicksort129875842
	sslittle-na-sstrix-gcc -Wall -O3 -funroll-loops -finline-functions  -DRANDOM_SIZE=4194304 -DOFFSET=1 -DSORT=multi_quicksort sorts/multi_quicksort1076659013.c simpleMain.c -o multi_quicksort129875842
	sim-cache -cache:dl1 dl1:256:32:1:l -cache:dl2 dl2:131072:32:1:l -cache:il1 il1:256:32:1:l -cache:il2 dl2 multi_quicksort129875842
	sim-cache -cache:dl1 dl1:256:32:1:l -cache:dl2 dl2:65536:32:1:l -cache:il1 il1:256:32:1:l -cache:il2 dl2 multi_quicksort129875842
	sim-cache -cache:dl1 dl1:1:32:256:l -cache:dl2 dl2:1:32:131072:l -cache:il1 il1:1:32:256:l -cache:il2 dl2 multi_quicksort129875842
	sim-cache -cache:dl1 dl1:1:32:256:l -cache:dl2 dl2:1:32:65536:l -cache:il1 il1:1:32:256:l -cache:il2 dl2 multi_quicksort129875842
	sim-bpred -bpred bimod -bpred:bimod 512 multi_quicksort129875842
	sim-bpred -bpred bimod -bpred:bimod 1024 multi_quicksort129875842
	sim-bpred -bpred bimod -bpred:bimod 2048 multi_quicksort129875842
	sim-bpred -bpred 2lev -bpred:2lev 1 512 10 1 multi_quicksort129875842
	sim-bpred -bpred 2lev -bpred:2lev 1 1024 10 1 multi_quicksort129875842
	sim-bpred -bpred 2lev -bpred:2lev 1 2048 10 1 multi_quicksort129875842
	sim-bpred -bpred 2lev -bpred:2lev 1 4096 10 1 multi_quicksort129875842
