Sun Jul 31 05:59:17 2005
Run as: "./do_simple -c random.org8 -o 8 multi_quicksort"
-------------------------------------------------------------------------------------------------
sim-cache                                     4096 |         4096 |         4096 |         4096 |         8192 |         8192 |         8192 |         8192 |        16384 |        16384 |        16384 |        16384 |        32768 |        32768 |        32768 |        32768 |        65536 |        65536 |        65536 |        65536 |       131072 |       131072 |       131072 |       131072 |       262144 |       262144 |       262144 |       262144 |       524288 |       524288 |       524288 |       524288 |      1048576 |      1048576 |      1048576 |      1048576 |      2097152 |      2097152 |      2097152 |      2097152 |      4194304 |      4194304 |      4194304 |      4194304 |
-cache:dl1 dl1:256:32:1:l -cache:dl2 dl2:131072:32:1:l -cache:il1 il1:256:32:1:l -cache:il2 dl2
-cache:dl1 dl1:256:32:1:l -cache:dl2 dl2:65536:32:1:l -cache:il1 il1:256:32:1:l -cache:il2 dl2
-cache:dl1 dl1:1:32:256:l -cache:dl2 dl2:1:32:131072:l -cache:il1 il1:1:32:256:l -cache:il2 dl2
-cache:dl1 dl1:1:32:256:l -cache:dl2 dl2:1:32:65536:l -cache:il1 il1:1:32:256:l -cache:il2 dl2
-------------------------------------------------------------------------------------------------
sim_num_insn                                463038 |       463038 |       463038 |       463038 |      1004861 |      1004861 |      1004861 |      1004861 |      2118378 |      2118378 |      2118378 |      2118378 |      4533356 |      4533356 |      4533356 |      4533356 |      9871785 |      9871785 |      9871785 |      9871785 |     20732703 |     20732703 |     20732703 |     20732703 |     44775844 |     44775844 |     44775844 |     44775844 |     94498463 |     94498463 |     94498463 |     94498463 |    197378417 |    197378417 |    197378417 |    197378417 |    547975419 |    547975419 |    547975419 |    547975419 |   1119063944 |   1119063944 |   1119063944 |   1119063944 |
sim_num_refs                                122797 |       122797 |       122797 |       122797 |       260297 |       260297 |       260297 |       260297 |       546277 |       546277 |       546277 |       546277 |      1160176 |      1160176 |      1160176 |      1160176 |      2488573 |      2488573 |      2488573 |      2488573 |      5212920 |      5212920 |      5212920 |      5212920 |     11112556 |     11112556 |     11112556 |     11112556 |     23398114 |     23398114 |     23398114 |     23398114 |     48730286 |     48730286 |     48730286 |     48730286 |    132748956 |    132748956 |    132748956 |    132748956 |    267588037 |    267588037 |    267588037 |    267588037 |
sim_elapsed_time                                 1 |            1 |            7 |            4 |            1 |            1 |           10 |            5 |            1 |            1 |           16 |            8 |            1 |            1 |           26 |           13 |            2 |            3 |           48 |           24 |            6 |            5 |           89 |           75 |           12 |           12 |          163 |           77 |           25 |           25 |          281 |          110 |           52 |           52 |          391 |          138 |          146 |          146 |          490 |          239 |          296 |          298 |          650 |          400 |
sim_inst_rate                          463038.0000 |  463038.0000 |   66148.2857 |  115759.5000 | 1004861.0000 | 1004861.0000 |  100486.1000 |  200972.2000 | 2118378.0000 | 2118378.0000 |  132398.6250 |  264797.2500 | 4533356.0000 | 4533356.0000 |  174359.8462 |  348719.6923 | 4935892.5000 | 3290595.0000 |  205662.1875 |  411324.3750 | 3455450.5000 | 4146540.6000 |  232951.7191 |  276436.0400 | 3731320.3333 | 3731320.3333 |  274698.4294 |  581504.4675 | 3779938.5200 | 3779938.5200 |  336293.4626 |  859076.9364 | 3795738.7885 | 3795738.7885 |  504804.1355 | 1430278.3841 | 3753256.2945 | 3753256.2945 | 1118317.1816 | 2292784.1799 | 3780621.4324 | 3755248.1342 | 1721636.8369 | 2797659.8600 |
il1.accesses                                463038 |       463038 |       463038 |       463038 |      1004861 |      1004861 |      1004861 |      1004861 |      2118378 |      2118378 |      2118378 |      2118378 |      4533356 |      4533356 |      4533356 |      4533356 |      9871785 |      9871785 |      9871785 |      9871785 |     20732703 |     20732703 |     20732703 |     20732703 |     44775844 |     44775844 |     44775844 |     44775844 |     94498463 |     94498463 |     94498463 |     94498463 |    197378417 |    197378417 |    197378417 |    197378417 |    547975419 |    547975419 |    547975419 |    547975419 |   1119063944 |   1119063944 |   1119063944 |   1119063944 |
il1.hits                                    462565 |       462565 |       462604 |       462604 |      1004385 |      1004385 |      1004422 |      1004422 |      2117914 |      2117914 |      2117942 |      2117942 |      4532882 |      4532882 |      4532918 |      4532918 |      9871305 |      9871305 |      9871341 |      9871341 |     20732226 |     20732226 |     20732262 |     20732262 |     44775370 |     44775370 |     44775406 |     44775406 |     94497983 |     94497983 |     94498019 |     94498019 |    197377937 |    197377937 |    197377973 |    197377973 |    547974663 |    547974663 |    547974708 |    547974708 |   1119063191 |   1119063191 |   1119063241 |   1119063241 |
il1.misses                                     473 |          473 |          434 |          434 |          476 |          476 |          439 |          439 |          464 |          464 |          436 |          436 |          474 |          474 |          438 |          438 |          480 |          480 |          444 |          444 |          477 |          477 |          441 |          441 |          474 |          474 |          438 |          438 |          480 |          480 |          444 |          444 |          480 |          480 |          444 |          444 |          756 |          756 |          711 |          711 |          753 |          753 |          703 |          703 |
il1.replacements                               233 |          233 |          178 |          178 |          235 |          235 |          183 |          183 |          219 |          219 |          180 |          180 |          231 |          231 |          182 |          182 |          237 |          237 |          188 |          188 |          234 |          234 |          185 |          185 |          231 |          231 |          182 |          182 |          237 |          237 |          188 |          188 |          237 |          237 |          188 |          188 |          500 |          500 |          455 |          455 |          497 |          497 |          447 |          447 |
il1.writebacks                                   0 |            0 |            0 |            0 |            0 |            0 |            0 |            0 |            0 |            0 |            0 |            0 |            0 |            0 |            0 |            0 |            0 |            0 |            0 |            0 |            0 |            0 |            0 |            0 |            0 |            0 |            0 |            0 |            0 |            0 |            0 |            0 |            0 |            0 |            0 |            0 |            0 |            0 |            0 |            0 |            0 |            0 |            0 |            0 |
il1.invalidations                                0 |            0 |            0 |            0 |            0 |            0 |            0 |            0 |            0 |            0 |            0 |            0 |            0 |            0 |            0 |            0 |            0 |            0 |            0 |            0 |            0 |            0 |            0 |            0 |            0 |            0 |            0 |            0 |            0 |            0 |            0 |            0 |            0 |            0 |            0 |            0 |            0 |            0 |            0 |            0 |            0 |            0 |            0 |            0 |
il1.miss_rate                               0.0010 |       0.0010 |       0.0009 |       0.0009 |       0.0005 |       0.0005 |       0.0004 |       0.0004 |       0.0002 |       0.0002 |       0.0002 |       0.0002 |       0.0001 |       0.0001 |       0.0001 |       0.0001 |       0.0000 |       0.0000 |       0.0000 |       0.0000 |       0.0000 |       0.0000 |       0.0000 |       0.0000 |       0.0000 |       0.0000 |       0.0000 |       0.0000 |       0.0000 |       0.0000 |       0.0000 |       0.0000 |       0.0000 |       0.0000 |       0.0000 |       0.0000 |       0.0000 |       0.0000 |       0.0000 |       0.0000 |       0.0000 |       0.0000 |       0.0000 |       0.0000 |
il1.repl_rate                               0.0005 |       0.0005 |       0.0004 |       0.0004 |       0.0002 |       0.0002 |       0.0002 |       0.0002 |       0.0001 |       0.0001 |       0.0001 |       0.0001 |       0.0001 |       0.0001 |       0.0000 |       0.0000 |       0.0000 |       0.0000 |       0.0000 |       0.0000 |       0.0000 |       0.0000 |       0.0000 |       0.0000 |       0.0000 |       0.0000 |       0.0000 |       0.0000 |       0.0000 |       0.0000 |       0.0000 |       0.0000 |       0.0000 |       0.0000 |       0.0000 |       0.0000 |       0.0000 |       0.0000 |       0.0000 |       0.0000 |       0.0000 |       0.0000 |       0.0000 |       0.0000 |
il1.wb_rate                                 0.0000 |       0.0000 |       0.0000 |       0.0000 |       0.0000 |       0.0000 |       0.0000 |       0.0000 |       0.0000 |       0.0000 |       0.0000 |       0.0000 |       0.0000 |       0.0000 |       0.0000 |       0.0000 |       0.0000 |       0.0000 |       0.0000 |       0.0000 |       0.0000 |       0.0000 |       0.0000 |       0.0000 |       0.0000 |       0.0000 |       0.0000 |       0.0000 |       0.0000 |       0.0000 |       0.0000 |       0.0000 |       0.0000 |       0.0000 |       0.0000 |       0.0000 |       0.0000 |       0.0000 |       0.0000 |       0.0000 |       0.0000 |       0.0000 |       0.0000 |       0.0000 |
il1.inv_rate                                0.0000 |       0.0000 |       0.0000 |       0.0000 |       0.0000 |       0.0000 |       0.0000 |       0.0000 |       0.0000 |       0.0000 |       0.0000 |       0.0000 |       0.0000 |       0.0000 |       0.0000 |       0.0000 |       0.0000 |       0.0000 |       0.0000 |       0.0000 |       0.0000 |       0.0000 |       0.0000 |       0.0000 |       0.0000 |       0.0000 |       0.0000 |       0.0000 |       0.0000 |       0.0000 |       0.0000 |       0.0000 |       0.0000 |       0.0000 |       0.0000 |       0.0000 |       0.0000 |       0.0000 |       0.0000 |       0.0000 |       0.0000 |       0.0000 |       0.0000 |       0.0000 |
dl1.accesses                                139263 |       139263 |       139263 |       139263 |       293147 |       293147 |       293147 |       293147 |       611895 |       611895 |       611895 |       611895 |      1291330 |      1291330 |      1291330 |      1291330 |      2750799 |      2750799 |      2750799 |      2750799 |      5737290 |      5737290 |      5737290 |      5737290 |     12161214 |     12161214 |     12161214 |     12161214 |     25495348 |     25495348 |     25495348 |     25495348 |     52924672 |     52924672 |     52924672 |     52924672 |    141137647 |    141137647 |    141137647 |    141137647 |    284365336 |    284365336 |    284365336 |    284365336 |
dl1.hits                                    137044 |       137044 |       137075 |       137075 |       287922 |       287922 |       287970 |       287970 |       600433 |       600433 |       600537 |       600537 |      1264120 |      1264120 |      1263717 |      1263717 |      2681125 |      2681125 |      2681833 |      2681833 |      5584838 |      5584838 |      5586145 |      5586145 |     11797382 |     11797382 |     11799800 |     11799800 |     24686342 |     24686342 |     24694577 |     24694577 |     51181771 |     51181771 |     51200191 |     51200191 |    133345656 |    133345656 |    137252910 |    137252910 |    272421434 |    272421434 |    276755274 |    276755274 |
dl1.misses                                    2219 |         2219 |         2188 |         2188 |         5225 |         5225 |         5177 |         5177 |        11462 |        11462 |        11358 |        11358 |        27210 |        27210 |        27613 |        27613 |        69674 |        69674 |        68966 |        68966 |       152452 |       152452 |       151145 |       151145 |       363832 |       363832 |       361414 |       361414 |       809006 |       809006 |       800771 |       800771 |      1742901 |      1742901 |      1724481 |      1724481 |      7791991 |      7791991 |      3884737 |      3884737 |     11943902 |     11943902 |      7610062 |      7610062 |
dl1.replacements                              1963 |         1963 |         1932 |         1932 |         4969 |         4969 |         4921 |         4921 |        11206 |        11206 |        11102 |        11102 |        26954 |        26954 |        27357 |        27357 |        69418 |        69418 |        68710 |        68710 |       152196 |       152196 |       150889 |       150889 |       363576 |       363576 |       361158 |       361158 |       808750 |       808750 |       800515 |       800515 |      1742645 |      1742645 |      1724225 |      1724225 |      7791735 |      7791735 |      3884481 |      3884481 |     11943646 |     11943646 |      7609806 |      7609806 |
dl1.writebacks                                1913 |         1913 |         1903 |         1903 |         4720 |         4720 |         4715 |         4715 |        10869 |        10869 |        10858 |        10858 |        25837 |        25837 |        26414 |        26414 |        61811 |        61811 |        61732 |        61732 |       140422 |       140422 |       140736 |       140736 |       324523 |       324523 |       325188 |       325188 |       705741 |       705741 |       705297 |       705297 |      1576353 |      1576353 |      1575458 |      1575458 |      5170830 |      5170830 |      3122590 |      3122590 |      9964306 |      9964306 |      6173204 |      6173204 |
dl1.invalidations                                0 |            0 |            0 |            0 |            0 |            0 |            0 |            0 |            0 |            0 |            0 |            0 |            0 |            0 |            0 |            0 |            0 |            0 |            0 |            0 |            0 |            0 |            0 |            0 |            0 |            0 |            0 |            0 |            0 |            0 |            0 |            0 |            0 |            0 |            0 |            0 |            0 |            0 |            0 |            0 |            0 |            0 |            0 |            0 |
dl1.miss_rate                               0.0159 |       0.0159 |       0.0157 |       0.0157 |       0.0178 |       0.0178 |       0.0177 |       0.0177 |       0.0187 |       0.0187 |       0.0186 |       0.0186 |       0.0211 |       0.0211 |       0.0214 |       0.0214 |       0.0253 |       0.0253 |       0.0251 |       0.0251 |       0.0266 |       0.0266 |       0.0263 |       0.0263 |       0.0299 |       0.0299 |       0.0297 |       0.0297 |       0.0317 |       0.0317 |       0.0314 |       0.0314 |       0.0329 |       0.0329 |       0.0326 |       0.0326 |       0.0552 |       0.0552 |       0.0275 |       0.0275 |       0.0420 |       0.0420 |       0.0268 |       0.0268 |
dl1.repl_rate                               0.0141 |       0.0141 |       0.0139 |       0.0139 |       0.0170 |       0.0170 |       0.0168 |       0.0168 |       0.0183 |       0.0183 |       0.0181 |       0.0181 |       0.0209 |       0.0209 |       0.0212 |       0.0212 |       0.0252 |       0.0252 |       0.0250 |       0.0250 |       0.0265 |       0.0265 |       0.0263 |       0.0263 |       0.0299 |       0.0299 |       0.0297 |       0.0297 |       0.0317 |       0.0317 |       0.0314 |       0.0314 |       0.0329 |       0.0329 |       0.0326 |       0.0326 |       0.0552 |       0.0552 |       0.0275 |       0.0275 |       0.0420 |       0.0420 |       0.0268 |       0.0268 |
dl1.wb_rate                                 0.0137 |       0.0137 |       0.0137 |       0.0137 |       0.0161 |       0.0161 |       0.0161 |       0.0161 |       0.0178 |       0.0178 |       0.0177 |       0.0177 |       0.0200 |       0.0200 |       0.0205 |       0.0205 |       0.0225 |       0.0225 |       0.0224 |       0.0224 |       0.0245 |       0.0245 |       0.0245 |       0.0245 |       0.0267 |       0.0267 |       0.0267 |       0.0267 |       0.0277 |       0.0277 |       0.0277 |       0.0277 |       0.0298 |       0.0298 |       0.0298 |       0.0298 |       0.0366 |       0.0366 |       0.0221 |       0.0221 |       0.0350 |       0.0350 |       0.0217 |       0.0217 |
dl1.inv_rate                                0.0000 |       0.0000 |       0.0000 |       0.0000 |       0.0000 |       0.0000 |       0.0000 |       0.0000 |       0.0000 |       0.0000 |       0.0000 |       0.0000 |       0.0000 |       0.0000 |       0.0000 |       0.0000 |       0.0000 |       0.0000 |       0.0000 |       0.0000 |       0.0000 |       0.0000 |       0.0000 |       0.0000 |       0.0000 |       0.0000 |       0.0000 |       0.0000 |       0.0000 |       0.0000 |       0.0000 |       0.0000 |       0.0000 |       0.0000 |       0.0000 |       0.0000 |       0.0000 |       0.0000 |       0.0000 |       0.0000 |       0.0000 |       0.0000 |       0.0000 |       0.0000 |
dl2.accesses                                  4605 |         4605 |         4525 |         4525 |        10421 |        10421 |        10331 |        10331 |        22795 |        22795 |        22652 |        22652 |        53521 |        53521 |        54465 |        54465 |       131965 |       131965 |       131142 |       131142 |       293351 |       293351 |       292322 |       292322 |       688829 |       688829 |       687040 |       687040 |      1515227 |      1515227 |      1506512 |      1506512 |      3319734 |      3319734 |      3300383 |      3300383 |     12963577 |     12963577 |      7008038 |      7008038 |     21908961 |     21908961 |     13783969 |     13783969 |
dl2.hits                                      3180 |         3180 |         3141 |         3141 |         8479 |         8479 |         8430 |         8430 |        19849 |        19849 |        19744 |        19744 |        48522 |        48522 |        49509 |        49509 |       122863 |       122863 |       122083 |       122083 |       276060 |       276060 |       275074 |       275074 |       655157 |       655157 |       653411 |       653411 |      1448781 |      1448167 |      1440109 |      1402853 |      3187108 |      2926422 |      3143048 |      2886314 |     11604154 |     11562924 |      5702448 |      5534089 |     19188199 |     18957022 |     11059642 |     10811206 |
dl2.misses                                    1425 |         1425 |         1384 |         1384 |         1942 |         1942 |         1901 |         1901 |         2946 |         2946 |         2908 |         2908 |         4999 |         4999 |         4956 |         4956 |         9102 |         9102 |         9059 |         9059 |        17291 |        17291 |        17248 |        17248 |        33672 |        33672 |        33629 |        33629 |        66446 |        67060 |        66403 |       103659 |       132626 |       393312 |       157335 |       414069 |      1359423 |      1400653 |      1305590 |      1473949 |      2720762 |      2951939 |      2724327 |      2972763 |
dl2.replacements                               291 |          291 |            0 |            0 |          288 |          288 |            0 |            0 |          286 |          286 |            0 |            0 |          289 |          289 |            0 |            0 |          295 |          295 |            0 |            0 |          292 |          292 |            0 |            0 |          289 |          289 |            0 |            0 |          295 |         1524 |            0 |        38123 |         1554 |       327776 |        26263 |       348533 |      1228351 |      1335117 |      1174518 |      1408413 |      2589690 |      2886403 |      2593255 |      2907227 |
dl2.writebacks                                 154 |          154 |            0 |            0 |          153 |          153 |            0 |            0 |          152 |          152 |            0 |            0 |          153 |          153 |            0 |            0 |          153 |          153 |            0 |            0 |          153 |          153 |            0 |            0 |          153 |          153 |            0 |            0 |          153 |         1250 |            0 |        37892 |         1267 |       314534 |        26032 |       334451 |       744943 |       817412 |       722924 |       898261 |      1580767 |      1829949 |      1598267 |      1866855 |
dl2.invalidations                                0 |            0 |            0 |            0 |            0 |            0 |            0 |            0 |            0 |            0 |            0 |            0 |            0 |            0 |            0 |            0 |            0 |            0 |            0 |            0 |            0 |            0 |            0 |            0 |            0 |            0 |            0 |            0 |            0 |            0 |            0 |            0 |            0 |            0 |            0 |            0 |            0 |            0 |            0 |            0 |            0 |            0 |            0 |            0 |
dl2.miss_rate                               0.3094 |       0.3094 |       0.3059 |       0.3059 |       0.1864 |       0.1864 |       0.1840 |       0.1840 |       0.1292 |       0.1292 |       0.1284 |       0.1284 |       0.0934 |       0.0934 |       0.0910 |       0.0910 |       0.0690 |       0.0690 |       0.0691 |       0.0691 |       0.0589 |       0.0589 |       0.0590 |       0.0590 |       0.0489 |       0.0489 |       0.0489 |       0.0489 |       0.0439 |       0.0443 |       0.0441 |       0.0688 |       0.0400 |       0.1185 |       0.0477 |       0.1255 |       0.1049 |       0.1080 |       0.1863 |       0.2103 |       0.1242 |       0.1347 |       0.1976 |       0.2157 |
dl2.repl_rate                               0.0632 |       0.0632 |       0.0000 |       0.0000 |       0.0276 |       0.0276 |       0.0000 |       0.0000 |       0.0125 |       0.0125 |       0.0000 |       0.0000 |       0.0054 |       0.0054 |       0.0000 |       0.0000 |       0.0022 |       0.0022 |       0.0000 |       0.0000 |       0.0010 |       0.0010 |       0.0000 |       0.0000 |       0.0004 |       0.0004 |       0.0000 |       0.0000 |       0.0002 |       0.0010 |       0.0000 |       0.0253 |       0.0005 |       0.0987 |       0.0080 |       0.1056 |       0.0948 |       0.1030 |       0.1676 |       0.2010 |       0.1182 |       0.1317 |       0.1881 |       0.2109 |
dl2.wb_rate                                 0.0334 |       0.0334 |       0.0000 |       0.0000 |       0.0147 |       0.0147 |       0.0000 |       0.0000 |       0.0067 |       0.0067 |       0.0000 |       0.0000 |       0.0029 |       0.0029 |       0.0000 |       0.0000 |       0.0012 |       0.0012 |       0.0000 |       0.0000 |       0.0005 |       0.0005 |       0.0000 |       0.0000 |       0.0002 |       0.0002 |       0.0000 |       0.0000 |       0.0001 |       0.0008 |       0.0000 |       0.0252 |       0.0004 |       0.0947 |       0.0079 |       0.1013 |       0.0575 |       0.0631 |       0.1032 |       0.1282 |       0.0722 |       0.0835 |       0.1160 |       0.1354 |
dl2.inv_rate                                0.0000 |       0.0000 |       0.0000 |       0.0000 |       0.0000 |       0.0000 |       0.0000 |       0.0000 |       0.0000 |       0.0000 |       0.0000 |       0.0000 |       0.0000 |       0.0000 |       0.0000 |       0.0000 |       0.0000 |       0.0000 |       0.0000 |       0.0000 |       0.0000 |       0.0000 |       0.0000 |       0.0000 |       0.0000 |       0.0000 |       0.0000 |       0.0000 |       0.0000 |       0.0000 |       0.0000 |       0.0000 |       0.0000 |       0.0000 |       0.0000 |       0.0000 |       0.0000 |       0.0000 |       0.0000 |       0.0000 |       0.0000 |       0.0000 |       0.0000 |       0.0000 |
itlb.accesses                               463038 |       463038 |       463038 |       463038 |      1004861 |      1004861 |      1004861 |      1004861 |      2118378 |      2118378 |      2118378 |      2118378 |      4533356 |      4533356 |      4533356 |      4533356 |      9871785 |      9871785 |      9871785 |      9871785 |     20732703 |     20732703 |     20732703 |     20732703 |     44775844 |     44775844 |     44775844 |     44775844 |     94498463 |     94498463 |     94498463 |     94498463 |    197378417 |    197378417 |    197378417 |    197378417 |    547975419 |    547975419 |    547975419 |    547975419 |   1119063944 |   1119063944 |   1119063944 |   1119063944 |
itlb.hits                                   463027 |       463027 |       463027 |       463027 |      1004850 |      1004850 |      1004850 |      1004850 |      2118367 |      2118367 |      2118367 |      2118367 |      4533344 |      4533344 |      4533344 |      4533344 |      9871773 |      9871773 |      9871773 |      9871773 |     20732691 |     20732691 |     20732691 |     20732691 |     44775832 |     44775832 |     44775832 |     44775832 |     94498451 |     94498451 |     94498451 |     94498451 |    197378405 |    197378405 |    197378405 |    197378405 |    547975407 |    547975407 |    547975407 |    547975407 |   1119063932 |   1119063932 |   1119063932 |   1119063932 |
itlb.misses                                     11 |           11 |           11 |           11 |           11 |           11 |           11 |           11 |           11 |           11 |           11 |           11 |           12 |           12 |           12 |           12 |           12 |           12 |           12 |           12 |           12 |           12 |           12 |           12 |           12 |           12 |           12 |           12 |           12 |           12 |           12 |           12 |           12 |           12 |           12 |           12 |           12 |           12 |           12 |           12 |           12 |           12 |           12 |           12 |
itlb.replacements                                0 |            0 |            0 |            0 |            0 |            0 |            0 |            0 |            0 |            0 |            0 |            0 |            0 |            0 |            0 |            0 |            0 |            0 |            0 |            0 |            0 |            0 |            0 |            0 |            0 |            0 |            0 |            0 |            0 |            0 |            0 |            0 |            0 |            0 |            0 |            0 |            0 |            0 |            0 |            0 |            0 |            0 |            0 |            0 |
itlb.writebacks                                  0 |            0 |            0 |            0 |            0 |            0 |            0 |            0 |            0 |            0 |            0 |            0 |            0 |            0 |            0 |            0 |            0 |            0 |            0 |            0 |            0 |            0 |            0 |            0 |            0 |            0 |            0 |            0 |            0 |            0 |            0 |            0 |            0 |            0 |            0 |            0 |            0 |            0 |            0 |            0 |            0 |            0 |            0 |            0 |
itlb.invalidations                               0 |            0 |            0 |            0 |            0 |            0 |            0 |            0 |            0 |            0 |            0 |            0 |            0 |            0 |            0 |            0 |            0 |            0 |            0 |            0 |            0 |            0 |            0 |            0 |            0 |            0 |            0 |            0 |            0 |            0 |            0 |            0 |            0 |            0 |            0 |            0 |            0 |            0 |            0 |            0 |            0 |            0 |            0 |            0 |
itlb.miss_rate                              0.0000 |       0.0000 |       0.0000 |       0.0000 |       0.0000 |       0.0000 |       0.0000 |       0.0000 |       0.0000 |       0.0000 |       0.0000 |       0.0000 |       0.0000 |       0.0000 |       0.0000 |       0.0000 |       0.0000 |       0.0000 |       0.0000 |       0.0000 |       0.0000 |       0.0000 |       0.0000 |       0.0000 |       0.0000 |       0.0000 |       0.0000 |       0.0000 |       0.0000 |       0.0000 |       0.0000 |       0.0000 |       0.0000 |       0.0000 |       0.0000 |       0.0000 |       0.0000 |       0.0000 |       0.0000 |       0.0000 |       0.0000 |       0.0000 |       0.0000 |       0.0000 |
itlb.repl_rate                              0.0000 |       0.0000 |       0.0000 |       0.0000 |       0.0000 |       0.0000 |       0.0000 |       0.0000 |       0.0000 |       0.0000 |       0.0000 |       0.0000 |       0.0000 |       0.0000 |       0.0000 |       0.0000 |       0.0000 |       0.0000 |       0.0000 |       0.0000 |       0.0000 |       0.0000 |       0.0000 |       0.0000 |       0.0000 |       0.0000 |       0.0000 |       0.0000 |       0.0000 |       0.0000 |       0.0000 |       0.0000 |       0.0000 |       0.0000 |       0.0000 |       0.0000 |       0.0000 |       0.0000 |       0.0000 |       0.0000 |       0.0000 |       0.0000 |       0.0000 |       0.0000 |
itlb.wb_rate                                0.0000 |       0.0000 |       0.0000 |       0.0000 |       0.0000 |       0.0000 |       0.0000 |       0.0000 |       0.0000 |       0.0000 |       0.0000 |       0.0000 |       0.0000 |       0.0000 |       0.0000 |       0.0000 |       0.0000 |       0.0000 |       0.0000 |       0.0000 |       0.0000 |       0.0000 |       0.0000 |       0.0000 |       0.0000 |       0.0000 |       0.0000 |       0.0000 |       0.0000 |       0.0000 |       0.0000 |       0.0000 |       0.0000 |       0.0000 |       0.0000 |       0.0000 |       0.0000 |       0.0000 |       0.0000 |       0.0000 |       0.0000 |       0.0000 |       0.0000 |       0.0000 |
itlb.inv_rate                               0.0000 |       0.0000 |       0.0000 |       0.0000 |       0.0000 |       0.0000 |       0.0000 |       0.0000 |       0.0000 |       0.0000 |       0.0000 |       0.0000 |       0.0000 |       0.0000 |       0.0000 |       0.0000 |       0.0000 |       0.0000 |       0.0000 |       0.0000 |       0.0000 |       0.0000 |       0.0000 |       0.0000 |       0.0000 |       0.0000 |       0.0000 |       0.0000 |       0.0000 |       0.0000 |       0.0000 |       0.0000 |       0.0000 |       0.0000 |       0.0000 |       0.0000 |       0.0000 |       0.0000 |       0.0000 |       0.0000 |       0.0000 |       0.0000 |       0.0000 |       0.0000 |
dtlb.accesses                               139263 |       139263 |       139263 |       139263 |       293147 |       293147 |       293147 |       293147 |       611895 |       611895 |       611895 |       611895 |      1291330 |      1291330 |      1291330 |      1291330 |      2750799 |      2750799 |      2750799 |      2750799 |      5737290 |      5737290 |      5737290 |      5737290 |     12161214 |     12161214 |     12161214 |     12161214 |     25495348 |     25495348 |     25495348 |     25495348 |     52924672 |     52924672 |     52924672 |     52924672 |    141137647 |    141137647 |    141137647 |    141137647 |    284365336 |    284365336 |    284365336 |    284365336 |
dtlb.hits                                   139251 |       139251 |       139251 |       139251 |       293131 |       293131 |       293131 |       293131 |       611871 |       611871 |       611871 |       611871 |      1291290 |      1291290 |      1291290 |      1291290 |      2750727 |      2750727 |      2750727 |      2750727 |      5737129 |      5737129 |      5737129 |      5737129 |     12160273 |     12160273 |     12160273 |     12160273 |     25492760 |     25492760 |     25492760 |     25492760 |     52918687 |     52918687 |     52918687 |     52918687 |    141121827 |    141121827 |    141121827 |    141121827 |    284334958 |    284334958 |    284334958 |    284334958 |
dtlb.misses                                     12 |           12 |           12 |           12 |           16 |           16 |           16 |           16 |           24 |           24 |           24 |           24 |           40 |           40 |           40 |           40 |           72 |           72 |           72 |           72 |          161 |          161 |          161 |          161 |          941 |          941 |          941 |          941 |         2588 |         2588 |         2588 |         2588 |         5985 |         5985 |         5985 |         5985 |        15820 |        15820 |        15820 |        15820 |        30378 |        30378 |        30378 |        30378 |
dtlb.replacements                                0 |            0 |            0 |            0 |            0 |            0 |            0 |            0 |            0 |            0 |            0 |            0 |            0 |            0 |            0 |            0 |            0 |            0 |            0 |            0 |           33 |           33 |           33 |           33 |          813 |          813 |          813 |          813 |         2460 |         2460 |         2460 |         2460 |         5857 |         5857 |         5857 |         5857 |        15692 |        15692 |        15692 |        15692 |        30250 |        30250 |        30250 |        30250 |
dtlb.writebacks                                  0 |            0 |            0 |            0 |            0 |            0 |            0 |            0 |            0 |            0 |            0 |            0 |            0 |            0 |            0 |            0 |            0 |            0 |            0 |            0 |           31 |           31 |           31 |           31 |          811 |          811 |          811 |          811 |         2458 |         2458 |         2458 |         2458 |         5855 |         5855 |         5855 |         5855 |        13627 |        13627 |        13627 |        13627 |        26126 |        26126 |        26126 |        26126 |
dtlb.invalidations                               0 |            0 |            0 |            0 |            0 |            0 |            0 |            0 |            0 |            0 |            0 |            0 |            0 |            0 |            0 |            0 |            0 |            0 |            0 |            0 |            0 |            0 |            0 |            0 |            0 |            0 |            0 |            0 |            0 |            0 |            0 |            0 |            0 |            0 |            0 |            0 |            0 |            0 |            0 |            0 |            0 |            0 |            0 |            0 |
dtlb.miss_rate                              0.0001 |       0.0001 |       0.0001 |       0.0001 |       0.0001 |       0.0001 |       0.0001 |       0.0001 |       0.0000 |       0.0000 |       0.0000 |       0.0000 |       0.0000 |       0.0000 |       0.0000 |       0.0000 |       0.0000 |       0.0000 |       0.0000 |       0.0000 |       0.0000 |       0.0000 |       0.0000 |       0.0000 |       0.0001 |       0.0001 |       0.0001 |       0.0001 |       0.0001 |       0.0001 |       0.0001 |       0.0001 |       0.0001 |       0.0001 |       0.0001 |       0.0001 |       0.0001 |       0.0001 |       0.0001 |       0.0001 |       0.0001 |       0.0001 |       0.0001 |       0.0001 |
dtlb.repl_rate                              0.0000 |       0.0000 |       0.0000 |       0.0000 |       0.0000 |       0.0000 |       0.0000 |       0.0000 |       0.0000 |       0.0000 |       0.0000 |       0.0000 |       0.0000 |       0.0000 |       0.0000 |       0.0000 |       0.0000 |       0.0000 |       0.0000 |       0.0000 |       0.0000 |       0.0000 |       0.0000 |       0.0000 |       0.0001 |       0.0001 |       0.0001 |       0.0001 |       0.0001 |       0.0001 |       0.0001 |       0.0001 |       0.0001 |       0.0001 |       0.0001 |       0.0001 |       0.0001 |       0.0001 |       0.0001 |       0.0001 |       0.0001 |       0.0001 |       0.0001 |       0.0001 |
dtlb.wb_rate                                0.0000 |       0.0000 |       0.0000 |       0.0000 |       0.0000 |       0.0000 |       0.0000 |       0.0000 |       0.0000 |       0.0000 |       0.0000 |       0.0000 |       0.0000 |       0.0000 |       0.0000 |       0.0000 |       0.0000 |       0.0000 |       0.0000 |       0.0000 |       0.0000 |       0.0000 |       0.0000 |       0.0000 |       0.0001 |       0.0001 |       0.0001 |       0.0001 |       0.0001 |       0.0001 |       0.0001 |       0.0001 |       0.0001 |       0.0001 |       0.0001 |       0.0001 |       0.0001 |       0.0001 |       0.0001 |       0.0001 |       0.0001 |       0.0001 |       0.0001 |       0.0001 |
dtlb.inv_rate                               0.0000 |       0.0000 |       0.0000 |       0.0000 |       0.0000 |       0.0000 |       0.0000 |       0.0000 |       0.0000 |       0.0000 |       0.0000 |       0.0000 |       0.0000 |       0.0000 |       0.0000 |       0.0000 |       0.0000 |       0.0000 |       0.0000 |       0.0000 |       0.0000 |       0.0000 |       0.0000 |       0.0000 |       0.0000 |       0.0000 |       0.0000 |       0.0000 |       0.0000 |       0.0000 |       0.0000 |       0.0000 |       0.0000 |       0.0000 |       0.0000 |       0.0000 |       0.0000 |       0.0000 |       0.0000 |       0.0000 |       0.0000 |       0.0000 |       0.0000 |       0.0000 |
ld_text_base                            0x00400000 |   0x00400000 |   0x00400000 |   0x00400000 |   0x00400000 |   0x00400000 |   0x00400000 |   0x00400000 |   0x00400000 |   0x00400000 |   0x00400000 |   0x00400000 |   0x00400000 |   0x00400000 |   0x00400000 |   0x00400000 |   0x00400000 |   0x00400000 |   0x00400000 |   0x00400000 |   0x00400000 |   0x00400000 |   0x00400000 |   0x00400000 |   0x00400000 |   0x00400000 |   0x00400000 |   0x00400000 |   0x00400000 |   0x00400000 |   0x00400000 |   0x00400000 |   0x00400000 |   0x00400000 |   0x00400000 |   0x00400000 |   0x00400000 |   0x00400000 |   0x00400000 |   0x00400000 |   0x00400000 |   0x00400000 |   0x00400000 |   0x00400000 |
ld_text_size                                 78496 |        78496 |        78496 |        78496 |        78528 |        78528 |        78528 |        78528 |        78544 |        78544 |        78544 |        78544 |        78560 |        78560 |        78560 |        78560 |        78560 |        78560 |        78560 |        78560 |        78560 |        78560 |        78560 |        78560 |        78560 |        78560 |        78560 |        78560 |        78560 |        78560 |        78560 |        78560 |        78560 |        78560 |        78560 |        78560 |        78560 |        78560 |        78560 |        78560 |        78560 |        78560 |        78560 |        78560 |
ld_data_base                            0x10000000 |   0x10000000 |   0x10000000 |   0x10000000 |   0x10000000 |   0x10000000 |   0x10000000 |   0x10000000 |   0x10000000 |   0x10000000 |   0x10000000 |   0x10000000 |   0x10000000 |   0x10000000 |   0x10000000 |   0x10000000 |   0x10000000 |   0x10000000 |   0x10000000 |   0x10000000 |   0x10000000 |   0x10000000 |   0x10000000 |   0x10000000 |   0x10000000 |   0x10000000 |   0x10000000 |   0x10000000 |   0x10000000 |   0x10000000 |   0x10000000 |   0x10000000 |   0x10000000 |   0x10000000 |   0x10000000 |   0x10000000 |   0x10000000 |   0x10000000 |   0x10000000 |   0x10000000 |   0x10000000 |   0x10000000 |   0x10000000 |   0x10000000 |
ld_data_size                                  8192 |         8192 |         8192 |         8192 |         8192 |         8192 |         8192 |         8192 |         8192 |         8192 |         8192 |         8192 |         8192 |         8192 |         8192 |         8192 |         8192 |         8192 |         8192 |         8192 |         8192 |         8192 |         8192 |         8192 |         8192 |         8192 |         8192 |         8192 |         8192 |         8192 |         8192 |         8192 |         8192 |         8192 |         8192 |         8192 |         8192 |         8192 |         8192 |         8192 |         8192 |         8192 |         8192 |         8192 |
ld_stack_base                           0x7fffc000 |   0x7fffc000 |   0x7fffc000 |   0x7fffc000 |   0x7fffc000 |   0x7fffc000 |   0x7fffc000 |   0x7fffc000 |   0x7fffc000 |   0x7fffc000 |   0x7fffc000 |   0x7fffc000 |   0x7fffc000 |   0x7fffc000 |   0x7fffc000 |   0x7fffc000 |   0x7fffc000 |   0x7fffc000 |   0x7fffc000 |   0x7fffc000 |   0x7fffc000 |   0x7fffc000 |   0x7fffc000 |   0x7fffc000 |   0x7fffc000 |   0x7fffc000 |   0x7fffc000 |   0x7fffc000 |   0x7fffc000 |   0x7fffc000 |   0x7fffc000 |   0x7fffc000 |   0x7fffc000 |   0x7fffc000 |   0x7fffc000 |   0x7fffc000 |   0x7fffc000 |   0x7fffc000 |   0x7fffc000 |   0x7fffc000 |   0x7fffc000 |   0x7fffc000 |   0x7fffc000 |   0x7fffc000 |
ld_stack_size                                16384 |        16384 |        16384 |        16384 |        16384 |        16384 |        16384 |        16384 |        16384 |        16384 |        16384 |        16384 |        16384 |        16384 |        16384 |        16384 |        16384 |        16384 |        16384 |        16384 |        16384 |        16384 |        16384 |        16384 |        16384 |        16384 |        16384 |        16384 |        16384 |        16384 |        16384 |        16384 |        16384 |        16384 |        16384 |        16384 |        16384 |        16384 |        16384 |        16384 |        16384 |        16384 |        16384 |        16384 |
ld_prog_entry                           0x00400140 |   0x00400140 |   0x00400140 |   0x00400140 |   0x00400140 |   0x00400140 |   0x00400140 |   0x00400140 |   0x00400140 |   0x00400140 |   0x00400140 |   0x00400140 |   0x00400140 |   0x00400140 |   0x00400140 |   0x00400140 |   0x00400140 |   0x00400140 |   0x00400140 |   0x00400140 |   0x00400140 |   0x00400140 |   0x00400140 |   0x00400140 |   0x00400140 |   0x00400140 |   0x00400140 |   0x00400140 |   0x00400140 |   0x00400140 |   0x00400140 |   0x00400140 |   0x00400140 |   0x00400140 |   0x00400140 |   0x00400140 |   0x00400140 |   0x00400140 |   0x00400140 |   0x00400140 |   0x00400140 |   0x00400140 |   0x00400140 |   0x00400140 |
ld_environ_base                         0x7fff8000 |   0x7fff8000 |   0x7fff8000 |   0x7fff8000 |   0x7fff8000 |   0x7fff8000 |   0x7fff8000 |   0x7fff8000 |   0x7fff8000 |   0x7fff8000 |   0x7fff8000 |   0x7fff8000 |   0x7fff8000 |   0x7fff8000 |   0x7fff8000 |   0x7fff8000 |   0x7fff8000 |   0x7fff8000 |   0x7fff8000 |   0x7fff8000 |   0x7fff8000 |   0x7fff8000 |   0x7fff8000 |   0x7fff8000 |   0x7fff8000 |   0x7fff8000 |   0x7fff8000 |   0x7fff8000 |   0x7fff8000 |   0x7fff8000 |   0x7fff8000 |   0x7fff8000 |   0x7fff8000 |   0x7fff8000 |   0x7fff8000 |   0x7fff8000 |   0x7fff8000 |   0x7fff8000 |   0x7fff8000 |   0x7fff8000 |   0x7fff8000 |   0x7fff8000 |   0x7fff8000 |   0x7fff8000 |
ld_target_big_endian                             0 |            0 |            0 |            0 |            0 |            0 |            0 |            0 |            0 |            0 |            0 |            0 |            0 |            0 |            0 |            0 |            0 |            0 |            0 |            0 |            0 |            0 |            0 |            0 |            0 |            0 |            0 |            0 |            0 |            0 |            0 |            0 |            0 |            0 |            0 |            0 |            0 |            0 |            0 |            0 |            0 |            0 |            0 |            0 |
mem.page_count                                  32 |           32 |           32 |           32 |           36 |           36 |           36 |           36 |           44 |           44 |           44 |           44 |           60 |           60 |           60 |           60 |           92 |           92 |           92 |           92 |          156 |          156 |          156 |          156 |          284 |          284 |          284 |          284 |          540 |          540 |          540 |          540 |         1052 |         1052 |         1052 |         1052 |         4148 |         4148 |         4148 |         4148 |         8266 |         8266 |         8266 |         8266 |
mem.page_mem                                  128k |         128k |         128k |         128k |         144k |         144k |         144k |         144k |         176k |         176k |         176k |         176k |         240k |         240k |         240k |         240k |         368k |         368k |         368k |         368k |         624k |         624k |         624k |         624k |        1136k |        1136k |        1136k |        1136k |        2160k |        2160k |        2160k |        2160k |        4208k |        4208k |        4208k |        4208k |       16592k |       16592k |       16592k |       16592k |       33064k |       33064k |       33064k |       33064k |
mem.ptab_misses                                 32 |           32 |           32 |           32 |           36 |           36 |           36 |           36 |           44 |           44 |           44 |           44 |           60 |           60 |           60 |           60 |           92 |           92 |           92 |           92 |          156 |          156 |          156 |          156 |          284 |          284 |          284 |          284 |          540 |          540 |          540 |          540 |         1052 |         1052 |         1052 |         1052 |        22560 |        22560 |        22560 |        22560 |        26680 |        26680 |        26680 |        26680 |
mem.ptab_accesses                          2616298 |      2616298 |      2616298 |      2616298 |      5091550 |      5091550 |      5091550 |      5091550 |     10183210 |     10183210 |     10183210 |     10183210 |     21202088 |     21202088 |     21202088 |     21202088 |     45474742 |     45474742 |     45474742 |     45474742 |     94891396 |     94891396 |     94891396 |     94891396 |    203911808 |    203911808 |    203911808 |    203911808 |    429470552 |    429470552 |    429470552 |    429470552 |    895849016 |    895849016 |    895849016 |    895849016 |   2474662974 |   2474662974 |   2474662974 |   2474662974 |   5045472452 |   5045472452 |   5045472452 |   5045472452 |
mem.ptab_miss_rate                          0.0000 |       0.0000 |       0.0000 |       0.0000 |       0.0000 |       0.0000 |       0.0000 |       0.0000 |       0.0000 |       0.0000 |       0.0000 |       0.0000 |       0.0000 |       0.0000 |       0.0000 |       0.0000 |       0.0000 |       0.0000 |       0.0000 |       0.0000 |       0.0000 |       0.0000 |       0.0000 |       0.0000 |       0.0000 |       0.0000 |       0.0000 |       0.0000 |       0.0000 |       0.0000 |       0.0000 |       0.0000 |       0.0000 |       0.0000 |       0.0000 |       0.0000 |       0.0000 |       0.0000 |       0.0000 |       0.0000 |       0.0000 |       0.0000 |       0.0000 |       0.0000 |
-------------------------------------------------------------------------------------------------
sim-bpred                                     4096 |         4096 |         4096 |         4096 |         4096 |         4096 |         4096 |         8192 |         8192 |         8192 |         8192 |         8192 |         8192 |         8192 |        16384 |        16384 |        16384 |        16384 |        16384 |        16384 |        16384 |        32768 |        32768 |        32768 |        32768 |        32768 |        32768 |        32768 |        65536 |        65536 |        65536 |        65536 |        65536 |        65536 |        65536 |       131072 |       131072 |       131072 |       131072 |       131072 |       131072 |       131072 |       262144 |       262144 |       262144 |       262144 |       262144 |       262144 |       262144 |       524288 |       524288 |       524288 |       524288 |       524288 |       524288 |       524288 |      1048576 |      1048576 |      1048576 |      1048576 |      1048576 |      1048576 |      1048576 |      2097152 |      2097152 |      2097152 |      2097152 |      2097152 |      2097152 |      2097152 |      4194304 |      4194304 |      4194304 |      4194304 |      4194304 |      4194304 |      4194304 |
-bpred bimod -bpred:bimod 512
-bpred bimod -bpred:bimod 1024
-bpred bimod -bpred:bimod 2048
-bpred 2lev -bpred:2lev 1 512 10 1
-bpred 2lev -bpred:2lev 1 1024 10 1
-bpred 2lev -bpred:2lev 1 2048 10 1
-bpred 2lev -bpred:2lev 1 4096 10 1
-------------------------------------------------------------------------------------------------
sim_num_insn                                463038 |       463038 |       463038 |       463038 |       463038 |       463038 |       463038 |      1004861 |      1004861 |      1004861 |      1004861 |      1004861 |      1004861 |      1004861 |      2118378 |      2118378 |      2118378 |      2118378 |      2118378 |      2118378 |      2118378 |      4533356 |      4533356 |      4533356 |      4533356 |      4533356 |      4533356 |      4533356 |      9871785 |      9871785 |      9871785 |      9871785 |      9871785 |      9871785 |      9871785 |     20732703 |     20732703 |     20732703 |     20732703 |     20732703 |     20732703 |     20732703 |     44775844 |     44775844 |     44775844 |     44775844 |     44775844 |     44775844 |     44775844 |     94498463 |     94498463 |     94498463 |     94498463 |     94498463 |     94498463 |     94498463 |    197378417 |    197378417 |    197378417 |    197378417 |    197378417 |    197378417 |    197378417 |    547975419 |    547975419 |    547975419 |    547975419 |    547975419 |    547975419 |    547975419 |   1119063944 |   1119063944 |   1119063944 |   1119063944 |   1119063944 |   1119063944 |   1119063944 |
sim_num_refs                                122797 |       122797 |       122797 |       122797 |       122797 |       122797 |       122797 |       260297 |       260297 |       260297 |       260297 |       260297 |       260297 |       260297 |       546277 |       546277 |       546277 |       546277 |       546277 |       546277 |       546277 |      1160176 |      1160176 |      1160176 |      1160176 |      1160176 |      1160176 |      1160176 |      2488573 |      2488573 |      2488573 |      2488573 |      2488573 |      2488573 |      2488573 |      5212920 |      5212920 |      5212920 |      5212920 |      5212920 |      5212920 |      5212920 |     11112556 |     11112556 |     11112556 |     11112556 |     11112556 |     11112556 |     11112556 |     23398114 |     23398114 |     23398114 |     23398114 |     23398114 |     23398114 |     23398114 |     48730286 |     48730286 |     48730286 |     48730286 |     48730286 |     48730286 |     48730286 |    132748956 |    132748956 |    132748956 |    132748956 |    132748956 |    132748956 |    132748956 |    267588037 |    267588037 |    267588037 |    267588037 |    267588037 |    267588037 |    267588037 |
sim_elapsed_time                                 1 |            1 |            1 |            1 |            1 |            1 |            1 |            1 |            1 |            1 |            1 |            1 |            1 |            1 |            1 |            1 |            1 |            1 |            1 |            1 |            1 |            1 |            1 |            1 |            1 |            1 |            1 |            1 |            2 |            1 |            1 |            1 |            1 |            1 |            1 |           28 |            9 |            3 |            2 |            3 |            3 |            2 |            5 |            5 |            6 |            5 |            6 |            5 |            6 |           12 |           11 |           11 |           12 |           11 |           12 |           12 |           24 |           23 |           24 |           24 |           24 |           24 |           24 |           67 |           67 |           68 |           69 |           75 |           68 |           69 |          139 |          138 |          139 |          141 |          141 |          140 |          141 |
sim_inst_rate                          463038.0000 |  463038.0000 |  463038.0000 |  463038.0000 |  463038.0000 |  463038.0000 |  463038.0000 | 1004861.0000 | 1004861.0000 | 1004861.0000 | 1004861.0000 | 1004861.0000 | 1004861.0000 | 1004861.0000 | 2118378.0000 | 2118378.0000 | 2118378.0000 | 2118378.0000 | 2118378.0000 | 2118378.0000 | 2118378.0000 | 4533356.0000 | 4533356.0000 | 4533356.0000 | 4533356.0000 | 4533356.0000 | 4533356.0000 | 4533356.0000 | 4935892.5000 | 9871785.0000 | 9871785.0000 | 9871785.0000 | 9871785.0000 | 9871785.0000 | 9871785.0000 |  740453.6786 | 2303633.6667 | 6910901.0000 |10366351.5000 | 6910901.0000 | 6910901.0000 |10366351.5000 | 8955168.8000 | 8955168.8000 | 7462640.6667 | 8955168.8000 | 7462640.6667 | 8955168.8000 | 7462640.6667 | 7874871.9167 | 8590769.3636 | 8590769.3636 | 7874871.9167 | 8590769.3636 | 7874871.9167 | 7874871.9167 | 8224100.7083 | 8581670.3043 | 8224100.7083 | 8224100.7083 | 8224100.7083 | 8224100.7083 | 8224100.7083 | 8178737.5970 | 8178737.5970 | 8058462.0441 | 7941672.7391 | 7306338.9200 | 8058462.0441 | 7941672.7391 | 8050819.7410 | 8109159.0145 | 8050819.7410 | 7936623.7163 | 7936623.7163 | 7993313.8857 | 7936623.7163 |
sim_num_branches                             75958 |        75958 |        75958 |        75958 |        75958 |        75958 |        75958 |       166268 |       166268 |       166268 |       166268 |       166268 |       166268 |       166268 |       352694 |       352694 |       352694 |       352694 |       352694 |       352694 |       352694 |       759571 |       759571 |       759571 |       759571 |       759571 |       759571 |       759571 |      1660550 |      1660550 |      1660550 |      1660550 |      1660550 |      1660550 |      1660550 |      3502555 |      3502555 |      3502555 |      3502555 |      3502555 |      3502555 |      3502555 |      7585792 |      7585792 |      7585792 |      7585792 |      7585792 |      7585792 |      7585792 |     16075806 |     16075806 |     16075806 |     16075806 |     16075806 |     16075806 |     16075806 |     33605007 |     33605007 |     33605007 |     33605007 |     33605007 |     33605007 |     33605007 |     88504248 |     88504248 |     88504248 |     88504248 |     88504248 |     88504248 |     88504248 |    181927235 |    181927235 |    181927235 |    181927235 |    181927235 |    181927235 |    181927235 |
sim_IPB                                     6.0960 |       6.0960 |       6.0960 |       6.0960 |       6.0960 |       6.0960 |       6.0960 |       6.0436 |       6.0436 |       6.0436 |       6.0436 |       6.0436 |       6.0436 |       6.0436 |       6.0063 |       6.0063 |       6.0063 |       6.0063 |       6.0063 |       6.0063 |       6.0063 |       5.9683 |       5.9683 |       5.9683 |       5.9683 |       5.9683 |       5.9683 |       5.9683 |       5.9449 |       5.9449 |       5.9449 |       5.9449 |       5.9449 |       5.9449 |       5.9449 |       5.9193 |       5.9193 |       5.9193 |       5.9193 |       5.9193 |       5.9193 |       5.9193 |       5.9026 |       5.9026 |       5.9026 |       5.9026 |       5.9026 |       5.9026 |       5.9026 |       5.8783 |       5.8783 |       5.8783 |       5.8783 |       5.8783 |       5.8783 |       5.8783 |       5.8735 |       5.8735 |       5.8735 |       5.8735 |       5.8735 |       5.8735 |       5.8735 |       6.1915 |       6.1915 |       6.1915 |       6.1915 |       6.1915 |       6.1915 |       6.1915 |       6.1512 |       6.1512 |       6.1512 |       6.1512 |       6.1512 |       6.1512 |       6.1512 |
bpred_bimod.lookups                          75958 |        75958 |        75958 |xxxxxxxxxxxxx |xxxxxxxxxxxxx |xxxxxxxxxxxxx |xxxxxxxxxxxxx |       166268 |       166268 |       166268 |xxxxxxxxxxxxx |xxxxxxxxxxxxx |xxxxxxxxxxxxx |xxxxxxxxxxxxx |       352694 |       352694 |       352694 |xxxxxxxxxxxxx |xxxxxxxxxxxxx |xxxxxxxxxxxxx |xxxxxxxxxxxxx |       759571 |       759571 |       759571 |xxxxxxxxxxxxx |xxxxxxxxxxxxx |xxxxxxxxxxxxx |xxxxxxxxxxxxx |      1660550 |      1660550 |      1660550 |xxxxxxxxxxxxx |xxxxxxxxxxxxx |xxxxxxxxxxxxx |xxxxxxxxxxxxx |      3502555 |      3502555 |      3502555 |xxxxxxxxxxxxx |xxxxxxxxxxxxx |xxxxxxxxxxxxx |xxxxxxxxxxxxx |      7585792 |      7585792 |      7585792 |xxxxxxxxxxxxx |xxxxxxxxxxxxx |xxxxxxxxxxxxx |xxxxxxxxxxxxx |     16075806 |     16075806 |     16075806 |xxxxxxxxxxxxx |xxxxxxxxxxxxx |xxxxxxxxxxxxx |xxxxxxxxxxxxx |     33605007 |     33605007 |     33605007 |xxxxxxxxxxxxx |xxxxxxxxxxxxx |xxxxxxxxxxxxx |xxxxxxxxxxxxx |     88504248 |     88504248 |     88504248 |xxxxxxxxxxxxx |xxxxxxxxxxxxx |xxxxxxxxxxxxx |xxxxxxxxxxxxx |    181927235 |    181927235 |    181927235 |
bpred_bimod.updates                          75958 |        75958 |        75958 |xxxxxxxxxxxxx |xxxxxxxxxxxxx |xxxxxxxxxxxxx |xxxxxxxxxxxxx |       166268 |       166268 |       166268 |xxxxxxxxxxxxx |xxxxxxxxxxxxx |xxxxxxxxxxxxx |xxxxxxxxxxxxx |       352694 |       352694 |       352694 |xxxxxxxxxxxxx |xxxxxxxxxxxxx |xxxxxxxxxxxxx |xxxxxxxxxxxxx |       759571 |       759571 |       759571 |xxxxxxxxxxxxx |xxxxxxxxxxxxx |xxxxxxxxxxxxx |xxxxxxxxxxxxx |      1660550 |      1660550 |      1660550 |xxxxxxxxxxxxx |xxxxxxxxxxxxx |xxxxxxxxxxxxx |xxxxxxxxxxxxx |      3502555 |      3502555 |      3502555 |xxxxxxxxxxxxx |xxxxxxxxxxxxx |xxxxxxxxxxxxx |xxxxxxxxxxxxx |      7585792 |      7585792 |      7585792 |xxxxxxxxxxxxx |xxxxxxxxxxxxx |xxxxxxxxxxxxx |xxxxxxxxxxxxx |     16075806 |     16075806 |     16075806 |xxxxxxxxxxxxx |xxxxxxxxxxxxx |xxxxxxxxxxxxx |xxxxxxxxxxxxx |     33605007 |     33605007 |     33605007 |xxxxxxxxxxxxx |xxxxxxxxxxxxx |xxxxxxxxxxxxx |xxxxxxxxxxxxx |     88504248 |     88504248 |     88504248 |xxxxxxxxxxxxx |xxxxxxxxxxxxx |xxxxxxxxxxxxx |xxxxxxxxxxxxx |    181927235 |    181927235 |    181927235 |
bpred_bimod.addr_hits                        54373 |        54373 |        54373 |xxxxxxxxxxxxx |xxxxxxxxxxxxx |xxxxxxxxxxxxx |xxxxxxxxxxxxx |       120226 |       120227 |       120232 |xxxxxxxxxxxxx |xxxxxxxxxxxxx |xxxxxxxxxxxxx |xxxxxxxxxxxxx |       251598 |       251599 |       251600 |xxxxxxxxxxxxx |xxxxxxxxxxxxx |xxxxxxxxxxxxx |xxxxxxxxxxxxx |       543163 |       543163 |       543163 |xxxxxxxxxxxxx |xxxxxxxxxxxxx |xxxxxxxxxxxxx |xxxxxxxxxxxxx |      1204648 |      1204646 |      1204646 |xxxxxxxxxxxxx |xxxxxxxxxxxxx |xxxxxxxxxxxxx |xxxxxxxxxxxxx |      2537370 |      2537368 |      2537368 |xxxxxxxxxxxxx |xxxxxxxxxxxxx |xxxxxxxxxxxxx |xxxxxxxxxxxxx |      5607984 |      5607982 |      5607982 |xxxxxxxxxxxxx |xxxxxxxxxxxxx |xxxxxxxxxxxxx |xxxxxxxxxxxxx |     11808472 |     11808473 |     11808473 |xxxxxxxxxxxxx |xxxxxxxxxxxxx |xxxxxxxxxxxxx |xxxxxxxxxxxxx |     24744571 |     24744572 |     24744572 |xxxxxxxxxxxxx |xxxxxxxxxxxxx |xxxxxxxxxxxxx |xxxxxxxxxxxxx |     67931715 |     67931743 |     67931746 |xxxxxxxxxxxxx |xxxxxxxxxxxxx |xxxxxxxxxxxxx |xxxxxxxxxxxxx |    137423502 |    137423551 |    137423554 |
bpred_bimod.dir_hits                         54487 |        54485 |        54485 |xxxxxxxxxxxxx |xxxxxxxxxxxxx |xxxxxxxxxxxxx |xxxxxxxxxxxxx |       120338 |       120338 |       120343 |xxxxxxxxxxxxx |xxxxxxxxxxxxx |xxxxxxxxxxxxx |xxxxxxxxxxxxx |       251713 |       251712 |       251713 |xxxxxxxxxxxxx |xxxxxxxxxxxxx |xxxxxxxxxxxxx |xxxxxxxxxxxxx |       543276 |       543274 |       543274 |xxxxxxxxxxxxx |xxxxxxxxxxxxx |xxxxxxxxxxxxx |xxxxxxxxxxxxx |      1204762 |      1204758 |      1204758 |xxxxxxxxxxxxx |xxxxxxxxxxxxx |xxxxxxxxxxxxx |xxxxxxxxxxxxx |      2537486 |      2537482 |      2537482 |xxxxxxxxxxxxx |xxxxxxxxxxxxx |xxxxxxxxxxxxx |xxxxxxxxxxxxx |      5608100 |      5608096 |      5608096 |xxxxxxxxxxxxx |xxxxxxxxxxxxx |xxxxxxxxxxxxx |xxxxxxxxxxxxx |     11808588 |     11808587 |     11808587 |xxxxxxxxxxxxx |xxxxxxxxxxxxx |xxxxxxxxxxxxx |xxxxxxxxxxxxx |     24744690 |     24744689 |     24744689 |xxxxxxxxxxxxx |xxxxxxxxxxxxx |xxxxxxxxxxxxx |xxxxxxxxxxxxx |     67931876 |     67931903 |     67931907 |xxxxxxxxxxxxx |xxxxxxxxxxxxx |xxxxxxxxxxxxx |xxxxxxxxxxxxx |    137423663 |    137423711 |    137423715 |
bpred_bimod.misses                           21471 |        21473 |        21473 |xxxxxxxxxxxxx |xxxxxxxxxxxxx |xxxxxxxxxxxxx |xxxxxxxxxxxxx |        45930 |        45930 |        45925 |xxxxxxxxxxxxx |xxxxxxxxxxxxx |xxxxxxxxxxxxx |xxxxxxxxxxxxx |       100981 |       100982 |       100981 |xxxxxxxxxxxxx |xxxxxxxxxxxxx |xxxxxxxxxxxxx |xxxxxxxxxxxxx |       216295 |       216297 |       216297 |xxxxxxxxxxxxx |xxxxxxxxxxxxx |xxxxxxxxxxxxx |xxxxxxxxxxxxx |       455788 |       455792 |       455792 |xxxxxxxxxxxxx |xxxxxxxxxxxxx |xxxxxxxxxxxxx |xxxxxxxxxxxxx |       965069 |       965073 |       965073 |xxxxxxxxxxxxx |xxxxxxxxxxxxx |xxxxxxxxxxxxx |xxxxxxxxxxxxx |      1977692 |      1977696 |      1977696 |xxxxxxxxxxxxx |xxxxxxxxxxxxx |xxxxxxxxxxxxx |xxxxxxxxxxxxx |      4267218 |      4267219 |      4267219 |xxxxxxxxxxxxx |xxxxxxxxxxxxx |xxxxxxxxxxxxx |xxxxxxxxxxxxx |      8860317 |      8860318 |      8860318 |xxxxxxxxxxxxx |xxxxxxxxxxxxx |xxxxxxxxxxxxx |xxxxxxxxxxxxx |     20572372 |     20572345 |     20572341 |xxxxxxxxxxxxx |xxxxxxxxxxxxx |xxxxxxxxxxxxx |xxxxxxxxxxxxx |     44503572 |     44503524 |     44503520 |
bpred_bimod.jr_hits                             65 |           65 |           65 |xxxxxxxxxxxxx |xxxxxxxxxxxxx |xxxxxxxxxxxxx |xxxxxxxxxxxxx |           65 |           65 |           65 |xxxxxxxxxxxxx |xxxxxxxxxxxxx |xxxxxxxxxxxxx |xxxxxxxxxxxxx |           65 |           65 |           65 |xxxxxxxxxxxxx |xxxxxxxxxxxxx |xxxxxxxxxxxxx |xxxxxxxxxxxxx |           65 |           65 |           65 |xxxxxxxxxxxxx |xxxxxxxxxxxxx |xxxxxxxxxxxxx |xxxxxxxxxxxxx |           65 |           65 |           65 |xxxxxxxxxxxxx |xxxxxxxxxxxxx |xxxxxxxxxxxxx |xxxxxxxxxxxxx |           65 |           65 |           65 |xxxxxxxxxxxxx |xxxxxxxxxxxxx |xxxxxxxxxxxxx |xxxxxxxxxxxxx |           65 |           65 |           65 |xxxxxxxxxxxxx |xxxxxxxxxxxxx |xxxxxxxxxxxxx |xxxxxxxxxxxxx |           65 |           65 |           65 |xxxxxxxxxxxxx |xxxxxxxxxxxxx |xxxxxxxxxxxxx |xxxxxxxxxxxxx |           65 |           65 |           65 |xxxxxxxxxxxxx |xxxxxxxxxxxxx |xxxxxxxxxxxxx |xxxxxxxxxxxxx |          110 |          110 |          110 |xxxxxxxxxxxxx |xxxxxxxxxxxxx |xxxxxxxxxxxxx |xxxxxxxxxxxxx |          122 |          122 |          122 |
bpred_bimod.jr_seen                             65 |           65 |           65 |xxxxxxxxxxxxx |xxxxxxxxxxxxx |xxxxxxxxxxxxx |xxxxxxxxxxxxx |           65 |           65 |           65 |xxxxxxxxxxxxx |xxxxxxxxxxxxx |xxxxxxxxxxxxx |xxxxxxxxxxxxx |           65 |           65 |           65 |xxxxxxxxxxxxx |xxxxxxxxxxxxx |xxxxxxxxxxxxx |xxxxxxxxxxxxx |           65 |           65 |           65 |xxxxxxxxxxxxx |xxxxxxxxxxxxx |xxxxxxxxxxxxx |xxxxxxxxxxxxx |           65 |           65 |           65 |xxxxxxxxxxxxx |xxxxxxxxxxxxx |xxxxxxxxxxxxx |xxxxxxxxxxxxx |           65 |           65 |           65 |xxxxxxxxxxxxx |xxxxxxxxxxxxx |xxxxxxxxxxxxx |xxxxxxxxxxxxx |           65 |           65 |           65 |xxxxxxxxxxxxx |xxxxxxxxxxxxx |xxxxxxxxxxxxx |xxxxxxxxxxxxx |           65 |           65 |           65 |xxxxxxxxxxxxx |xxxxxxxxxxxxx |xxxxxxxxxxxxx |xxxxxxxxxxxxx |           65 |           65 |           65 |xxxxxxxxxxxxx |xxxxxxxxxxxxx |xxxxxxxxxxxxx |xxxxxxxxxxxxx |          111 |          111 |          111 |xxxxxxxxxxxxx |xxxxxxxxxxxxx |xxxxxxxxxxxxx |xxxxxxxxxxxxx |          123 |          123 |          123 |
bpred_bimod.jr_non_ras_hits.PP                   0 |            0 |            0 |xxxxxxxxxxxxx |xxxxxxxxxxxxx |xxxxxxxxxxxxx |xxxxxxxxxxxxx |            0 |            0 |            0 |xxxxxxxxxxxxx |xxxxxxxxxxxxx |xxxxxxxxxxxxx |xxxxxxxxxxxxx |            0 |            0 |            0 |xxxxxxxxxxxxx |xxxxxxxxxxxxx |xxxxxxxxxxxxx |xxxxxxxxxxxxx |            0 |            0 |            0 |xxxxxxxxxxxxx |xxxxxxxxxxxxx |xxxxxxxxxxxxx |xxxxxxxxxxxxx |            0 |            0 |            0 |xxxxxxxxxxxxx |xxxxxxxxxxxxx |xxxxxxxxxxxxx |xxxxxxxxxxxxx |            0 |            0 |            0 |xxxxxxxxxxxxx |xxxxxxxxxxxxx |xxxxxxxxxxxxx |xxxxxxxxxxxxx |            0 |            0 |            0 |xxxxxxxxxxxxx |xxxxxxxxxxxxx |xxxxxxxxxxxxx |xxxxxxxxxxxxx |            0 |            0 |            0 |xxxxxxxxxxxxx |xxxxxxxxxxxxx |xxxxxxxxxxxxx |xxxxxxxxxxxxx |            0 |            0 |            0 |xxxxxxxxxxxxx |xxxxxxxxxxxxx |xxxxxxxxxxxxx |xxxxxxxxxxxxx |            0 |            0 |            0 |xxxxxxxxxxxxx |xxxxxxxxxxxxx |xxxxxxxxxxxxx |xxxxxxxxxxxxx |            0 |            0 |            0 |
bpred_bimod.jr_non_ras_seen.PP                   0 |            0 |            0 |xxxxxxxxxxxxx |xxxxxxxxxxxxx |xxxxxxxxxxxxx |xxxxxxxxxxxxx |            0 |            0 |            0 |xxxxxxxxxxxxx |xxxxxxxxxxxxx |xxxxxxxxxxxxx |xxxxxxxxxxxxx |            0 |            0 |            0 |xxxxxxxxxxxxx |xxxxxxxxxxxxx |xxxxxxxxxxxxx |xxxxxxxxxxxxx |            0 |            0 |            0 |xxxxxxxxxxxxx |xxxxxxxxxxxxx |xxxxxxxxxxxxx |xxxxxxxxxxxxx |            0 |            0 |            0 |xxxxxxxxxxxxx |xxxxxxxxxxxxx |xxxxxxxxxxxxx |xxxxxxxxxxxxx |            0 |            0 |            0 |xxxxxxxxxxxxx |xxxxxxxxxxxxx |xxxxxxxxxxxxx |xxxxxxxxxxxxx |            0 |            0 |            0 |xxxxxxxxxxxxx |xxxxxxxxxxxxx |xxxxxxxxxxxxx |xxxxxxxxxxxxx |            0 |            0 |            0 |xxxxxxxxxxxxx |xxxxxxxxxxxxx |xxxxxxxxxxxxx |xxxxxxxxxxxxx |            0 |            0 |            0 |xxxxxxxxxxxxx |xxxxxxxxxxxxx |xxxxxxxxxxxxx |xxxxxxxxxxxxx |            1 |            1 |            1 |xxxxxxxxxxxxx |xxxxxxxxxxxxx |xxxxxxxxxxxxx |xxxxxxxxxxxxx |            1 |            1 |            1 |
bpred_bimod.bpred_addr_rate                 0.7158 |       0.7158 |       0.7158 |xxxxxxxxxxxxx |xxxxxxxxxxxxx |xxxxxxxxxxxxx |xxxxxxxxxxxxx |       0.7231 |       0.7231 |       0.7231 |xxxxxxxxxxxxx |xxxxxxxxxxxxx |xxxxxxxxxxxxx |xxxxxxxxxxxxx |       0.7134 |       0.7134 |       0.7134 |xxxxxxxxxxxxx |xxxxxxxxxxxxx |xxxxxxxxxxxxx |xxxxxxxxxxxxx |       0.7151 |       0.7151 |       0.7151 |xxxxxxxxxxxxx |xxxxxxxxxxxxx |xxxxxxxxxxxxx |xxxxxxxxxxxxx |       0.7255 |       0.7255 |       0.7255 |xxxxxxxxxxxxx |xxxxxxxxxxxxx |xxxxxxxxxxxxx |xxxxxxxxxxxxx |       0.7244 |       0.7244 |       0.7244 |xxxxxxxxxxxxx |xxxxxxxxxxxxx |xxxxxxxxxxxxx |xxxxxxxxxxxxx |       0.7393 |       0.7393 |       0.7393 |xxxxxxxxxxxxx |xxxxxxxxxxxxx |xxxxxxxxxxxxx |xxxxxxxxxxxxx |       0.7345 |       0.7345 |       0.7345 |xxxxxxxxxxxxx |xxxxxxxxxxxxx |xxxxxxxxxxxxx |xxxxxxxxxxxxx |       0.7363 |       0.7363 |       0.7363 |xxxxxxxxxxxxx |xxxxxxxxxxxxx |xxxxxxxxxxxxx |xxxxxxxxxxxxx |       0.7676 |       0.7676 |       0.7676 |xxxxxxxxxxxxx |xxxxxxxxxxxxx |xxxxxxxxxxxxx |xxxxxxxxxxxxx |       0.7554 |       0.7554 |       0.7554 |
bpred_bimod.bpred_dir_rate                  0.7173 |       0.7173 |       0.7173 |xxxxxxxxxxxxx |xxxxxxxxxxxxx |xxxxxxxxxxxxx |xxxxxxxxxxxxx |       0.7238 |       0.7238 |       0.7238 |xxxxxxxxxxxxx |xxxxxxxxxxxxx |xxxxxxxxxxxxx |xxxxxxxxxxxxx |       0.7137 |       0.7137 |       0.7137 |xxxxxxxxxxxxx |xxxxxxxxxxxxx |xxxxxxxxxxxxx |xxxxxxxxxxxxx |       0.7152 |       0.7152 |       0.7152 |xxxxxxxxxxxxx |xxxxxxxxxxxxx |xxxxxxxxxxxxx |xxxxxxxxxxxxx |       0.7255 |       0.7255 |       0.7255 |xxxxxxxxxxxxx |xxxxxxxxxxxxx |xxxxxxxxxxxxx |xxxxxxxxxxxxx |       0.7245 |       0.7245 |       0.7245 |xxxxxxxxxxxxx |xxxxxxxxxxxxx |xxxxxxxxxxxxx |xxxxxxxxxxxxx |       0.7393 |       0.7393 |       0.7393 |xxxxxxxxxxxxx |xxxxxxxxxxxxx |xxxxxxxxxxxxx |xxxxxxxxxxxxx |       0.7346 |       0.7346 |       0.7346 |xxxxxxxxxxxxx |xxxxxxxxxxxxx |xxxxxxxxxxxxx |xxxxxxxxxxxxx |       0.7363 |       0.7363 |       0.7363 |xxxxxxxxxxxxx |xxxxxxxxxxxxx |xxxxxxxxxxxxx |xxxxxxxxxxxxx |       0.7676 |       0.7676 |       0.7676 |xxxxxxxxxxxxx |xxxxxxxxxxxxx |xxxxxxxxxxxxx |xxxxxxxxxxxxx |       0.7554 |       0.7554 |       0.7554 |
bpred_bimod.bpred_jr_rate                   1.0000 |       1.0000 |       1.0000 |xxxxxxxxxxxxx |xxxxxxxxxxxxx |xxxxxxxxxxxxx |xxxxxxxxxxxxx |       1.0000 |       1.0000 |       1.0000 |xxxxxxxxxxxxx |xxxxxxxxxxxxx |xxxxxxxxxxxxx |xxxxxxxxxxxxx |       1.0000 |       1.0000 |       1.0000 |xxxxxxxxxxxxx |xxxxxxxxxxxxx |xxxxxxxxxxxxx |xxxxxxxxxxxxx |       1.0000 |       1.0000 |       1.0000 |xxxxxxxxxxxxx |xxxxxxxxxxxxx |xxxxxxxxxxxxx |xxxxxxxxxxxxx |       1.0000 |       1.0000 |       1.0000 |xxxxxxxxxxxxx |xxxxxxxxxxxxx |xxxxxxxxxxxxx |xxxxxxxxxxxxx |       1.0000 |       1.0000 |       1.0000 |xxxxxxxxxxxxx |xxxxxxxxxxxxx |xxxxxxxxxxxxx |xxxxxxxxxxxxx |       1.0000 |       1.0000 |       1.0000 |xxxxxxxxxxxxx |xxxxxxxxxxxxx |xxxxxxxxxxxxx |xxxxxxxxxxxxx |       1.0000 |       1.0000 |       1.0000 |xxxxxxxxxxxxx |xxxxxxxxxxxxx |xxxxxxxxxxxxx |xxxxxxxxxxxxx |       1.0000 |       1.0000 |       1.0000 |xxxxxxxxxxxxx |xxxxxxxxxxxxx |xxxxxxxxxxxxx |xxxxxxxxxxxxx |       0.9910 |       0.9910 |       0.9910 |xxxxxxxxxxxxx |xxxxxxxxxxxxx |xxxxxxxxxxxxx |xxxxxxxxxxxxx |       0.9919 |       0.9919 |       0.9919 |
bpred_bimod.bpred_jr_non_ras_rate.PP       <error: |      <error: |      <error: |xxxxxxxxxxxxx |xxxxxxxxxxxxx |xxxxxxxxxxxxx |xxxxxxxxxxxxx |      <error: |      <error: |      <error: |xxxxxxxxxxxxx |xxxxxxxxxxxxx |xxxxxxxxxxxxx |xxxxxxxxxxxxx |      <error: |      <error: |      <error: |xxxxxxxxxxxxx |xxxxxxxxxxxxx |xxxxxxxxxxxxx |xxxxxxxxxxxxx |      <error: |      <error: |      <error: |xxxxxxxxxxxxx |xxxxxxxxxxxxx |xxxxxxxxxxxxx |xxxxxxxxxxxxx |      <error: |      <error: |      <error: |xxxxxxxxxxxxx |xxxxxxxxxxxxx |xxxxxxxxxxxxx |xxxxxxxxxxxxx |      <error: |      <error: |      <error: |xxxxxxxxxxxxx |xxxxxxxxxxxxx |xxxxxxxxxxxxx |xxxxxxxxxxxxx |      <error: |      <error: |      <error: |xxxxxxxxxxxxx |xxxxxxxxxxxxx |xxxxxxxxxxxxx |xxxxxxxxxxxxx |      <error: |      <error: |      <error: |xxxxxxxxxxxxx |xxxxxxxxxxxxx |xxxxxxxxxxxxx |xxxxxxxxxxxxx |      <error: |      <error: |      <error: |xxxxxxxxxxxxx |xxxxxxxxxxxxx |xxxxxxxxxxxxx |xxxxxxxxxxxxx |       0.0000 |       0.0000 |       0.0000 |xxxxxxxxxxxxx |xxxxxxxxxxxxx |xxxxxxxxxxxxx |xxxxxxxxxxxxx |       0.0000 |       0.0000 |       0.0000 |
bpred_bimod.retstack_pushes                     67 |           67 |           67 |xxxxxxxxxxxxx |xxxxxxxxxxxxx |xxxxxxxxxxxxx |xxxxxxxxxxxxx |           67 |           67 |           67 |xxxxxxxxxxxxx |xxxxxxxxxxxxx |xxxxxxxxxxxxx |xxxxxxxxxxxxx |           67 |           67 |           67 |xxxxxxxxxxxxx |xxxxxxxxxxxxx |xxxxxxxxxxxxx |xxxxxxxxxxxxx |           67 |           67 |           67 |xxxxxxxxxxxxx |xxxxxxxxxxxxx |xxxxxxxxxxxxx |xxxxxxxxxxxxx |           67 |           67 |           67 |xxxxxxxxxxxxx |xxxxxxxxxxxxx |xxxxxxxxxxxxx |xxxxxxxxxxxxx |           67 |           67 |           67 |xxxxxxxxxxxxx |xxxxxxxxxxxxx |xxxxxxxxxxxxx |xxxxxxxxxxxxx |           67 |           67 |           67 |xxxxxxxxxxxxx |xxxxxxxxxxxxx |xxxxxxxxxxxxx |xxxxxxxxxxxxx |           67 |           67 |           67 |xxxxxxxxxxxxx |xxxxxxxxxxxxx |xxxxxxxxxxxxx |xxxxxxxxxxxxx |           67 |           67 |           67 |xxxxxxxxxxxxx |xxxxxxxxxxxxx |xxxxxxxxxxxxx |xxxxxxxxxxxxx |          112 |          112 |          112 |xxxxxxxxxxxxx |xxxxxxxxxxxxx |xxxxxxxxxxxxx |xxxxxxxxxxxxx |          124 |          124 |          124 |
bpred_bimod.retstack_pops                       65 |           65 |           65 |xxxxxxxxxxxxx |xxxxxxxxxxxxx |xxxxxxxxxxxxx |xxxxxxxxxxxxx |           65 |           65 |           65 |xxxxxxxxxxxxx |xxxxxxxxxxxxx |xxxxxxxxxxxxx |xxxxxxxxxxxxx |           65 |           65 |           65 |xxxxxxxxxxxxx |xxxxxxxxxxxxx |xxxxxxxxxxxxx |xxxxxxxxxxxxx |           65 |           65 |           65 |xxxxxxxxxxxxx |xxxxxxxxxxxxx |xxxxxxxxxxxxx |xxxxxxxxxxxxx |           65 |           65 |           65 |xxxxxxxxxxxxx |xxxxxxxxxxxxx |xxxxxxxxxxxxx |xxxxxxxxxxxxx |           65 |           65 |           65 |xxxxxxxxxxxxx |xxxxxxxxxxxxx |xxxxxxxxxxxxx |xxxxxxxxxxxxx |           65 |           65 |           65 |xxxxxxxxxxxxx |xxxxxxxxxxxxx |xxxxxxxxxxxxx |xxxxxxxxxxxxx |           65 |           65 |           65 |xxxxxxxxxxxxx |xxxxxxxxxxxxx |xxxxxxxxxxxxx |xxxxxxxxxxxxx |           65 |           65 |           65 |xxxxxxxxxxxxx |xxxxxxxxxxxxx |xxxxxxxxxxxxx |xxxxxxxxxxxxx |          110 |          110 |          110 |xxxxxxxxxxxxx |xxxxxxxxxxxxx |xxxxxxxxxxxxx |xxxxxxxxxxxxx |          122 |          122 |          122 |
bpred_bimod.used_ras.PP                         65 |           65 |           65 |xxxxxxxxxxxxx |xxxxxxxxxxxxx |xxxxxxxxxxxxx |xxxxxxxxxxxxx |           65 |           65 |           65 |xxxxxxxxxxxxx |xxxxxxxxxxxxx |xxxxxxxxxxxxx |xxxxxxxxxxxxx |           65 |           65 |           65 |xxxxxxxxxxxxx |xxxxxxxxxxxxx |xxxxxxxxxxxxx |xxxxxxxxxxxxx |           65 |           65 |           65 |xxxxxxxxxxxxx |xxxxxxxxxxxxx |xxxxxxxxxxxxx |xxxxxxxxxxxxx |           65 |           65 |           65 |xxxxxxxxxxxxx |xxxxxxxxxxxxx |xxxxxxxxxxxxx |xxxxxxxxxxxxx |           65 |           65 |           65 |xxxxxxxxxxxxx |xxxxxxxxxxxxx |xxxxxxxxxxxxx |xxxxxxxxxxxxx |           65 |           65 |           65 |xxxxxxxxxxxxx |xxxxxxxxxxxxx |xxxxxxxxxxxxx |xxxxxxxxxxxxx |           65 |           65 |           65 |xxxxxxxxxxxxx |xxxxxxxxxxxxx |xxxxxxxxxxxxx |xxxxxxxxxxxxx |           65 |           65 |           65 |xxxxxxxxxxxxx |xxxxxxxxxxxxx |xxxxxxxxxxxxx |xxxxxxxxxxxxx |          110 |          110 |          110 |xxxxxxxxxxxxx |xxxxxxxxxxxxx |xxxxxxxxxxxxx |xxxxxxxxxxxxx |          122 |          122 |          122 |
bpred_bimod.ras_hits.PP                         65 |           65 |           65 |xxxxxxxxxxxxx |xxxxxxxxxxxxx |xxxxxxxxxxxxx |xxxxxxxxxxxxx |           65 |           65 |           65 |xxxxxxxxxxxxx |xxxxxxxxxxxxx |xxxxxxxxxxxxx |xxxxxxxxxxxxx |           65 |           65 |           65 |xxxxxxxxxxxxx |xxxxxxxxxxxxx |xxxxxxxxxxxxx |xxxxxxxxxxxxx |           65 |           65 |           65 |xxxxxxxxxxxxx |xxxxxxxxxxxxx |xxxxxxxxxxxxx |xxxxxxxxxxxxx |           65 |           65 |           65 |xxxxxxxxxxxxx |xxxxxxxxxxxxx |xxxxxxxxxxxxx |xxxxxxxxxxxxx |           65 |           65 |           65 |xxxxxxxxxxxxx |xxxxxxxxxxxxx |xxxxxxxxxxxxx |xxxxxxxxxxxxx |           65 |           65 |           65 |xxxxxxxxxxxxx |xxxxxxxxxxxxx |xxxxxxxxxxxxx |xxxxxxxxxxxxx |           65 |           65 |           65 |xxxxxxxxxxxxx |xxxxxxxxxxxxx |xxxxxxxxxxxxx |xxxxxxxxxxxxx |           65 |           65 |           65 |xxxxxxxxxxxxx |xxxxxxxxxxxxx |xxxxxxxxxxxxx |xxxxxxxxxxxxx |          110 |          110 |          110 |xxxxxxxxxxxxx |xxxxxxxxxxxxx |xxxxxxxxxxxxx |xxxxxxxxxxxxx |          122 |          122 |          122 |
bpred_bimod.ras_rate.PP                     1.0000 |       1.0000 |       1.0000 |xxxxxxxxxxxxx |xxxxxxxxxxxxx |xxxxxxxxxxxxx |xxxxxxxxxxxxx |       1.0000 |       1.0000 |       1.0000 |xxxxxxxxxxxxx |xxxxxxxxxxxxx |xxxxxxxxxxxxx |xxxxxxxxxxxxx |       1.0000 |       1.0000 |       1.0000 |xxxxxxxxxxxxx |xxxxxxxxxxxxx |xxxxxxxxxxxxx |xxxxxxxxxxxxx |       1.0000 |       1.0000 |       1.0000 |xxxxxxxxxxxxx |xxxxxxxxxxxxx |xxxxxxxxxxxxx |xxxxxxxxxxxxx |       1.0000 |       1.0000 |       1.0000 |xxxxxxxxxxxxx |xxxxxxxxxxxxx |xxxxxxxxxxxxx |xxxxxxxxxxxxx |       1.0000 |       1.0000 |       1.0000 |xxxxxxxxxxxxx |xxxxxxxxxxxxx |xxxxxxxxxxxxx |xxxxxxxxxxxxx |       1.0000 |       1.0000 |       1.0000 |xxxxxxxxxxxxx |xxxxxxxxxxxxx |xxxxxxxxxxxxx |xxxxxxxxxxxxx |       1.0000 |       1.0000 |       1.0000 |xxxxxxxxxxxxx |xxxxxxxxxxxxx |xxxxxxxxxxxxx |xxxxxxxxxxxxx |       1.0000 |       1.0000 |       1.0000 |xxxxxxxxxxxxx |xxxxxxxxxxxxx |xxxxxxxxxxxxx |xxxxxxxxxxxxx |       1.0000 |       1.0000 |       1.0000 |xxxxxxxxxxxxx |xxxxxxxxxxxxx |xxxxxxxxxxxxx |xxxxxxxxxxxxx |       1.0000 |       1.0000 |       1.0000 |
bpred_2lev.lookups                   xxxxxxxxxxxxx |xxxxxxxxxxxxx |xxxxxxxxxxxxx |        75958 |        75958 |        75958 |        75958 |xxxxxxxxxxxxx |xxxxxxxxxxxxx |xxxxxxxxxxxxx |       166268 |       166268 |       166268 |       166268 |xxxxxxxxxxxxx |xxxxxxxxxxxxx |xxxxxxxxxxxxx |       352694 |       352694 |       352694 |       352694 |xxxxxxxxxxxxx |xxxxxxxxxxxxx |xxxxxxxxxxxxx |       759571 |       759571 |       759571 |       759571 |xxxxxxxxxxxxx |xxxxxxxxxxxxx |xxxxxxxxxxxxx |      1660550 |      1660550 |      1660550 |      1660550 |xxxxxxxxxxxxx |xxxxxxxxxxxxx |xxxxxxxxxxxxx |      3502555 |      3502555 |      3502555 |      3502555 |xxxxxxxxxxxxx |xxxxxxxxxxxxx |xxxxxxxxxxxxx |      7585792 |      7585792 |      7585792 |      7585792 |xxxxxxxxxxxxx |xxxxxxxxxxxxx |xxxxxxxxxxxxx |     16075806 |     16075806 |     16075806 |     16075806 |xxxxxxxxxxxxx |xxxxxxxxxxxxx |xxxxxxxxxxxxx |     33605007 |     33605007 |     33605007 |     33605007 |xxxxxxxxxxxxx |xxxxxxxxxxxxx |xxxxxxxxxxxxx |     88504248 |     88504248 |     88504248 |     88504248 |xxxxxxxxxxxxx |xxxxxxxxxxxxx |xxxxxxxxxxxxx |    181927235 |    181927235 |    181927235 |    181927235 |
[...]
bpred_2lev.retstack_pushes           xxxxxxxxxxxxx |xxxxxxxxxxxxx |xxxxxxxxxxxxx |           67 |           67 |           67 |           67 |xxxxxxxxxxxxx |xxxxxxxxxxxxx |xxxxxxxxxxxxx |           67 |           67 |           67 |           67 |xxxxxxxxxxxxx |xxxxxxxxxxxxx |xxxxxxxxxxxxx |           67 |           67 |           67 |           67 |xxxxxxxxxxxxx |xxxxxxxxxxxxx |xxxxxxxxxxxxx |           67 |           67 |           67 |           67 |xxxxxxxxxxxxx |xxxxxxxxxxxxx |xxxxxxxxxxxxx |           67 |           67 |           67 |           67 |xxxxxxxxxxxxx |xxxxxxxxxxxxx |xxxxxxxxxxxxx |           67 |           67 |           67 |           67 |xxxxxxxxxxxxx |xxxxxxxxxxxxx |xxxxxxxxxxxxx |           67 |           67 |           67 |           67 |xxxxxxxxxxxxx |xxxxxxxxxxxxx |xxxxxxxxxxxxx |           67 |           67 |           67 |           67 |xxxxxxxxxxxxx |xxxxxxxxxxxxx |xxxxxxxxxxxxx |           67 |           67 |           67 |           67 |xxxxxxxxxxxxx |xxxxxxxxxxxxx |xxxxxxxxxxxxx |          112 |          112 |          112 |          112 |xxxxxxxxxxxxx |xxxxxxxxxxxxx |xxxxxxxxxxxxx |          124 |          124 |          124 |          124 |
bpred_2lev.retstack_pops             xxxxxxxxxxxxx |xxxxxxxxxxxxx |xxxxxxxxxxxxx |           65 |           65 |           65 |           65 |xxxxxxxxxxxxx |xxxxxxxxxxxxx |xxxxxxxxxxxxx |           65 |           65 |           65 |           65 |xxxxxxxxxxxxx |xxxxxxxxxxxxx |xxxxxxxxxxxxx |           65 |           65 |           65 |           65 |xxxxxxxxxxxxx |xxxxxxxxxxxxx |xxxxxxxxxxxxx |           65 |           65 |           65 |           65 |xxxxxxxxxxxxx |xxxxxxxxxxxxx |xxxxxxxxxxxxx |           65 |           65 |           65 |           65 |xxxxxxxxxxxxx |xxxxxxxxxxxxx |xxxxxxxxxxxxx |           65 |           65 |           65 |           65 |xxxxxxxxxxxxx |xxxxxxxxxxxxx |xxxxxxxxxxxxx |           65 |           65 |           65 |           65 |xxxxxxxxxxxxx |xxxxxxxxxxxxx |xxxxxxxxxxxxx |           65 |           65 |           65 |           65 |xxxxxxxxxxxxx |xxxxxxxxxxxxx |xxxxxxxxxxxxx |           65 |           65 |           65 |           65 |xxxxxxxxxxxxx |xxxxxxxxxxxxx |xxxxxxxxxxxxx |          110 |          110 |          110 |          110 |xxxxxxxxxxxxx |xxxxxxxxxxxxx |xxxxxxxxxxxxx |          122 |          122 |          122 |          122 |
bpred_2lev.used_ras.PP               xxxxxxxxxxxxx |xxxxxxxxxxxxx |xxxxxxxxxxxxx |           65 |           65 |           65 |           65 |xxxxxxxxxxxxx |xxxxxxxxxxxxx |xxxxxxxxxxxxx |           65 |           65 |           65 |           65 |xxxxxxxxxxxxx |xxxxxxxxxxxxx |xxxxxxxxxxxxx |           65 |           65 |           65 |           65 |xxxxxxxxxxxxx |xxxxxxxxxxxxx |xxxxxxxxxxxxx |           65 |           65 |           65 |           65 |xxxxxxxxxxxxx |xxxxxxxxxxxxx |xxxxxxxxxxxxx |           65 |           65 |           65 |           65 |xxxxxxxxxxxxx |xxxxxxxxxxxxx |xxxxxxxxxxxxx |           65 |           65 |           65 |           65 |xxxxxxxxxxxxx |xxxxxxxxxxxxx |xxxxxxxxxxxxx |           65 |           65 |           65 |           65 |xxxxxxxxxxxxx |xxxxxxxxxxxxx |xxxxxxxxxxxxx |           65 |           65 |           65 |           65 |xxxxxxxxxxxxx |xxxxxxxxxxxxx |xxxxxxxxxxxxx |           65 |           65 |           65 |           65 |xxxxxxxxxxxxx |xxxxxxxxxxxxx |xxxxxxxxxxxxx |          110 |          110 |          110 |          110 |xxxxxxxxxxxxx |xxxxxxxxxxxxx |xxxxxxxxxxxxx |          122 |          122 |          122 |          122 |
bpred_2lev.ras_hits.PP               xxxxxxxxxxxxx |xxxxxxxxxxxxx |xxxxxxxxxxxxx |           65 |           65 |           65 |           65 |xxxxxxxxxxxxx |xxxxxxxxxxxxx |xxxxxxxxxxxxx |           65 |           65 |           65 |           65 |xxxxxxxxxxxxx |xxxxxxxxxxxxx |xxxxxxxxxxxxx |           65 |           65 |           65 |           65 |xxxxxxxxxxxxx |xxxxxxxxxxxxx |xxxxxxxxxxxxx |           65 |           65 |           65 |           65 |xxxxxxxxxxxxx |xxxxxxxxxxxxx |xxxxxxxxxxxxx |           65 |           65 |           65 |           65 |xxxxxxxxxxxxx |xxxxxxxxxxxxx |xxxxxxxxxxxxx |           65 |           65 |           65 |           65 |xxxxxxxxxxxxx |xxxxxxxxxxxxx |xxxxxxxxxxxxx |           65 |           65 |           65 |           65 |xxxxxxxxxxxxx |xxxxxxxxxxxxx |xxxxxxxxxxxxx |           65 |           65 |           65 |           65 |xxxxxxxxxxxxx |xxxxxxxxxxxxx |xxxxxxxxxxxxx |           65 |           65 |           65 |           65 |xxxxxxxxxxxxx |xxxxxxxxxxxxx |xxxxxxxxxxxxx |          110 |          110 |          110 |          110 |xxxxxxxxxxxxx |xxxxxxxxxxxxx |xxxxxxxxxxxxx |          122 |          122 |          122 |          122 |
bpred_2lev.ras_rate.PP               xxxxxxxxxxxxx |xxxxxxxxxxxxx |xxxxxxxxxxxxx |       1.0000 |       1.0000 |       1.0000 |       1.0000 |xxxxxxxxxxxxx |xxxxxxxxxxxxx |xxxxxxxxxxxxx |       1.0000 |       1.0000 |       1.0000 |       1.0000 |xxxxxxxxxxxxx |xxxxxxxxxxxxx |xxxxxxxxxxxxx |       1.0000 |       1.0000 |       1.0000 |       1.0000 |xxxxxxxxxxxxx |xxxxxxxxxxxxx |xxxxxxxxxxxxx |       1.0000 |       1.0000 |       1.0000 |       1.0000 |xxxxxxxxxxxxx |xxxxxxxxxxxxx |xxxxxxxxxxxxx |       1.0000 |       1.0000 |       1.0000 |       1.0000 |xxxxxxxxxxxxx |xxxxxxxxxxxxx |xxxxxxxxxxxxx |       1.0000 |       1.0000 |       1.0000 |       1.0000 |xxxxxxxxxxxxx |xxxxxxxxxxxxx |xxxxxxxxxxxxx |       1.0000 |       1.0000 |       1.0000 |       1.0000 |xxxxxxxxxxxxx |xxxxxxxxxxxxx |xxxxxxxxxxxxx |       1.0000 |       1.0000 |       1.0000 |       1.0000 |xxxxxxxxxxxxx |xxxxxxxxxxxxx |xxxxxxxxxxxxx |       1.0000 |       1.0000 |       1.0000 |       1.0000 |xxxxxxxxxxxxx |xxxxxxxxxxxxx |xxxxxxxxxxxxx |       1.0000 |       1.0000 |       1.0000 |       1.0000 |xxxxxxxxxxxxx |xxxxxxxxxxxxx |xxxxxxxxxxxxx |       1.0000 |       1.0000 |       1.0000 |       1.0000 |

Command list: 
	sslittle-na-sstrix-gcc -Wall -O3 -funroll-loops -finline-functions  -DRANDOM_SIZE=4096 -DOFFSET=8 -DSORT=multi_quicksort sorts/multi_quicksort1815965572.c simpleMain.c -o multi_quicksort2077261086
	sim-cache -cache:dl1 dl1:256:32:1:l -cache:dl2 dl2:131072:32:1:l -cache:il1 il1:256:32:1:l -cache:il2 dl2 multi_quicksort2077261086
	sim-cache -cache:dl1 dl1:256:32:1:l -cache:dl2 dl2:65536:32:1:l -cache:il1 il1:256:32:1:l -cache:il2 dl2 multi_quicksort2077261086
	sim-cache -cache:dl1 dl1:1:32:256:l -cache:dl2 dl2:1:32:131072:l -cache:il1 il1:1:32:256:l -cache:il2 dl2 multi_quicksort2077261086
	sim-cache -cache:dl1 dl1:1:32:256:l -cache:dl2 dl2:1:32:65536:l -cache:il1 il1:1:32:256:l -cache:il2 dl2 multi_quicksort2077261086
	sim-bpred -bpred bimod -bpred:bimod 512 multi_quicksort2077261086
	sim-bpred -bpred bimod -bpred:bimod 1024 multi_quicksort2077261086
	sim-bpred -bpred bimod -bpred:bimod 2048 multi_quicksort2077261086
	sim-bpred -bpred 2lev -bpred:2lev 1 512 10 1 multi_quicksort2077261086
	sim-bpred -bpred 2lev -bpred:2lev 1 1024 10 1 multi_quicksort2077261086
	sim-bpred -bpred 2lev -bpred:2lev 1 2048 10 1 multi_quicksort2077261086
	sim-bpred -bpred 2lev -bpred:2lev 1 4096 10 1 multi_quicksort2077261086
	sslittle-na-sstrix-gcc -Wall -O3 -funroll-loops -finline-functions  -DRANDOM_SIZE=8192 -DOFFSET=8 -DSORT=multi_quicksort sorts/multi_quicksort1815965572.c simpleMain.c -o multi_quicksort2077261086
	sim-cache -cache:dl1 dl1:256:32:1:l -cache:dl2 dl2:131072:32:1:l -cache:il1 il1:256:32:1:l -cache:il2 dl2 multi_quicksort2077261086
	sim-cache -cache:dl1 dl1:256:32:1:l -cache:dl2 dl2:65536:32:1:l -cache:il1 il1:256:32:1:l -cache:il2 dl2 multi_quicksort2077261086
	sim-cache -cache:dl1 dl1:1:32:256:l -cache:dl2 dl2:1:32:131072:l -cache:il1 il1:1:32:256:l -cache:il2 dl2 multi_quicksort2077261086
	sim-cache -cache:dl1 dl1:1:32:256:l -cache:dl2 dl2:1:32:65536:l -cache:il1 il1:1:32:256:l -cache:il2 dl2 multi_quicksort2077261086
	sim-bpred -bpred bimod -bpred:bimod 512 multi_quicksort2077261086
	sim-bpred -bpred bimod -bpred:bimod 1024 multi_quicksort2077261086
	sim-bpred -bpred bimod -bpred:bimod 2048 multi_quicksort2077261086
	sim-bpred -bpred 2lev -bpred:2lev 1 512 10 1 multi_quicksort2077261086
	sim-bpred -bpred 2lev -bpred:2lev 1 1024 10 1 multi_quicksort2077261086
	sim-bpred -bpred 2lev -bpred:2lev 1 2048 10 1 multi_quicksort2077261086
	sim-bpred -bpred 2lev -bpred:2lev 1 4096 10 1 multi_quicksort2077261086
	sslittle-na-sstrix-gcc -Wall -O3 -funroll-loops -finline-functions  -DRANDOM_SIZE=16384 -DOFFSET=8 -DSORT=multi_quicksort sorts/multi_quicksort1815965572.c simpleMain.c -o multi_quicksort2077261086
	sim-cache -cache:dl1 dl1:256:32:1:l -cache:dl2 dl2:131072:32:1:l -cache:il1 il1:256:32:1:l -cache:il2 dl2 multi_quicksort2077261086
	sim-cache -cache:dl1 dl1:256:32:1:l -cache:dl2 dl2:65536:32:1:l -cache:il1 il1:256:32:1:l -cache:il2 dl2 multi_quicksort2077261086
	sim-cache -cache:dl1 dl1:1:32:256:l -cache:dl2 dl2:1:32:131072:l -cache:il1 il1:1:32:256:l -cache:il2 dl2 multi_quicksort2077261086
	sim-cache -cache:dl1 dl1:1:32:256:l -cache:dl2 dl2:1:32:65536:l -cache:il1 il1:1:32:256:l -cache:il2 dl2 multi_quicksort2077261086
	sim-bpred -bpred bimod -bpred:bimod 512 multi_quicksort2077261086
	sim-bpred -bpred bimod -bpred:bimod 1024 multi_quicksort2077261086
	sim-bpred -bpred bimod -bpred:bimod 2048 multi_quicksort2077261086
	sim-bpred -bpred 2lev -bpred:2lev 1 512 10 1 multi_quicksort2077261086
	sim-bpred -bpred 2lev -bpred:2lev 1 1024 10 1 multi_quicksort2077261086
	sim-bpred -bpred 2lev -bpred:2lev 1 2048 10 1 multi_quicksort2077261086
	sim-bpred -bpred 2lev -bpred:2lev 1 4096 10 1 multi_quicksort2077261086
	sslittle-na-sstrix-gcc -Wall -O3 -funroll-loops -finline-functions  -DRANDOM_SIZE=32768 -DOFFSET=8 -DSORT=multi_quicksort sorts/multi_quicksort1815965572.c simpleMain.c -o multi_quicksort2077261086
	sim-cache -cache:dl1 dl1:256:32:1:l -cache:dl2 dl2:131072:32:1:l -cache:il1 il1:256:32:1:l -cache:il2 dl2 multi_quicksort2077261086
	sim-cache -cache:dl1 dl1:256:32:1:l -cache:dl2 dl2:65536:32:1:l -cache:il1 il1:256:32:1:l -cache:il2 dl2 multi_quicksort2077261086
	sim-cache -cache:dl1 dl1:1:32:256:l -cache:dl2 dl2:1:32:131072:l -cache:il1 il1:1:32:256:l -cache:il2 dl2 multi_quicksort2077261086
	sim-cache -cache:dl1 dl1:1:32:256:l -cache:dl2 dl2:1:32:65536:l -cache:il1 il1:1:32:256:l -cache:il2 dl2 multi_quicksort2077261086
	sim-bpred -bpred bimod -bpred:bimod 512 multi_quicksort2077261086
	sim-bpred -bpred bimod -bpred:bimod 1024 multi_quicksort2077261086
	sim-bpred -bpred bimod -bpred:bimod 2048 multi_quicksort2077261086
	sim-bpred -bpred 2lev -bpred:2lev 1 512 10 1 multi_quicksort2077261086
	sim-bpred -bpred 2lev -bpred:2lev 1 1024 10 1 multi_quicksort2077261086
	sim-bpred -bpred 2lev -bpred:2lev 1 2048 10 1 multi_quicksort2077261086
	sim-bpred -bpred 2lev -bpred:2lev 1 4096 10 1 multi_quicksort2077261086
	sslittle-na-sstrix-gcc -Wall -O3 -funroll-loops -finline-functions  -DRANDOM_SIZE=65536 -DOFFSET=8 -DSORT=multi_quicksort sorts/multi_quicksort1815965572.c simpleMain.c -o multi_quicksort2077261086
	sim-cache -cache:dl1 dl1:256:32:1:l -cache:dl2 dl2:131072:32:1:l -cache:il1 il1:256:32:1:l -cache:il2 dl2 multi_quicksort2077261086
	sim-cache -cache:dl1 dl1:256:32:1:l -cache:dl2 dl2:65536:32:1:l -cache:il1 il1:256:32:1:l -cache:il2 dl2 multi_quicksort2077261086
	sim-cache -cache:dl1 dl1:1:32:256:l -cache:dl2 dl2:1:32:131072:l -cache:il1 il1:1:32:256:l -cache:il2 dl2 multi_quicksort2077261086
	sim-cache -cache:dl1 dl1:1:32:256:l -cache:dl2 dl2:1:32:65536:l -cache:il1 il1:1:32:256:l -cache:il2 dl2 multi_quicksort2077261086
	sim-bpred -bpred bimod -bpred:bimod 512 multi_quicksort2077261086
	sim-bpred -bpred bimod -bpred:bimod 1024 multi_quicksort2077261086
	sim-bpred -bpred bimod -bpred:bimod 2048 multi_quicksort2077261086
	sim-bpred -bpred 2lev -bpred:2lev 1 512 10 1 multi_quicksort2077261086
	sim-bpred -bpred 2lev -bpred:2lev 1 1024 10 1 multi_quicksort2077261086
	sim-bpred -bpred 2lev -bpred:2lev 1 2048 10 1 multi_quicksort2077261086
	sim-bpred -bpred 2lev -bpred:2lev 1 4096 10 1 multi_quicksort2077261086
	sslittle-na-sstrix-gcc -Wall -O3 -funroll-loops -finline-functions  -DRANDOM_SIZE=131072 -DOFFSET=8 -DSORT=multi_quicksort sorts/multi_quicksort1815965572.c simpleMain.c -o multi_quicksort2077261086
	sim-cache -cache:dl1 dl1:256:32:1:l -cache:dl2 dl2:131072:32:1:l -cache:il1 il1:256:32:1:l -cache:il2 dl2 multi_quicksort2077261086
	sim-cache -cache:dl1 dl1:256:32:1:l -cache:dl2 dl2:65536:32:1:l -cache:il1 il1:256:32:1:l -cache:il2 dl2 multi_quicksort2077261086
	sim-cache -cache:dl1 dl1:1:32:256:l -cache:dl2 dl2:1:32:131072:l -cache:il1 il1:1:32:256:l -cache:il2 dl2 multi_quicksort2077261086
	sim-cache -cache:dl1 dl1:1:32:256:l -cache:dl2 dl2:1:32:65536:l -cache:il1 il1:1:32:256:l -cache:il2 dl2 multi_quicksort2077261086
	sim-bpred -bpred bimod -bpred:bimod 512 multi_quicksort2077261086
	sim-bpred -bpred bimod -bpred:bimod 1024 multi_quicksort2077261086
	sim-bpred -bpred bimod -bpred:bimod 2048 multi_quicksort2077261086
	sim-bpred -bpred 2lev -bpred:2lev 1 512 10 1 multi_quicksort2077261086
	sim-bpred -bpred 2lev -bpred:2lev 1 1024 10 1 multi_quicksort2077261086
	sim-bpred -bpred 2lev -bpred:2lev 1 2048 10 1 multi_quicksort2077261086
	sim-bpred -bpred 2lev -bpred:2lev 1 4096 10 1 multi_quicksort2077261086
	sslittle-na-sstrix-gcc -Wall -O3 -funroll-loops -finline-functions  -DRANDOM_SIZE=262144 -DOFFSET=8 -DSORT=multi_quicksort sorts/multi_quicksort1815965572.c simpleMain.c -o multi_quicksort2077261086
	sim-cache -cache:dl1 dl1:256:32:1:l -cache:dl2 dl2:131072:32:1:l -cache:il1 il1:256:32:1:l -cache:il2 dl2 multi_quicksort2077261086
	sim-cache -cache:dl1 dl1:256:32:1:l -cache:dl2 dl2:65536:32:1:l -cache:il1 il1:256:32:1:l -cache:il2 dl2 multi_quicksort2077261086
	sim-cache -cache:dl1 dl1:1:32:256:l -cache:dl2 dl2:1:32:131072:l -cache:il1 il1:1:32:256:l -cache:il2 dl2 multi_quicksort2077261086
	sim-cache -cache:dl1 dl1:1:32:256:l -cache:dl2 dl2:1:32:65536:l -cache:il1 il1:1:32:256:l -cache:il2 dl2 multi_quicksort2077261086
	sim-bpred -bpred bimod -bpred:bimod 512 multi_quicksort2077261086
	sim-bpred -bpred bimod -bpred:bimod 1024 multi_quicksort2077261086
	sim-bpred -bpred bimod -bpred:bimod 2048 multi_quicksort2077261086
	sim-bpred -bpred 2lev -bpred:2lev 1 512 10 1 multi_quicksort2077261086
	sim-bpred -bpred 2lev -bpred:2lev 1 1024 10 1 multi_quicksort2077261086
	sim-bpred -bpred 2lev -bpred:2lev 1 2048 10 1 multi_quicksort2077261086
	sim-bpred -bpred 2lev -bpred:2lev 1 4096 10 1 multi_quicksort2077261086
	sslittle-na-sstrix-gcc -Wall -O3 -funroll-loops -finline-functions  -DRANDOM_SIZE=524288 -DOFFSET=8 -DSORT=multi_quicksort sorts/multi_quicksort1815965572.c simpleMain.c -o multi_quicksort2077261086
	sim-cache -cache:dl1 dl1:256:32:1:l -cache:dl2 dl2:131072:32:1:l -cache:il1 il1:256:32:1:l -cache:il2 dl2 multi_quicksort2077261086
	sim-cache -cache:dl1 dl1:256:32:1:l -cache:dl2 dl2:65536:32:1:l -cache:il1 il1:256:32:1:l -cache:il2 dl2 multi_quicksort2077261086
	sim-cache -cache:dl1 dl1:1:32:256:l -cache:dl2 dl2:1:32:131072:l -cache:il1 il1:1:32:256:l -cache:il2 dl2 multi_quicksort2077261086
	sim-cache -cache:dl1 dl1:1:32:256:l -cache:dl2 dl2:1:32:65536:l -cache:il1 il1:1:32:256:l -cache:il2 dl2 multi_quicksort2077261086
	sim-bpred -bpred bimod -bpred:bimod 512 multi_quicksort2077261086
	sim-bpred -bpred bimod -bpred:bimod 1024 multi_quicksort2077261086
	sim-bpred -bpred bimod -bpred:bimod 2048 multi_quicksort2077261086
	sim-bpred -bpred 2lev -bpred:2lev 1 512 10 1 multi_quicksort2077261086
	sim-bpred -bpred 2lev -bpred:2lev 1 1024 10 1 multi_quicksort2077261086
	sim-bpred -bpred 2lev -bpred:2lev 1 2048 10 1 multi_quicksort2077261086
	sim-bpred -bpred 2lev -bpred:2lev 1 4096 10 1 multi_quicksort2077261086
	sslittle-na-sstrix-gcc -Wall -O3 -funroll-loops -finline-functions  -DRANDOM_SIZE=1048576 -DOFFSET=8 -DSORT=multi_quicksort sorts/multi_quicksort1815965572.c simpleMain.c -o multi_quicksort2077261086
	sim-cache -cache:dl1 dl1:256:32:1:l -cache:dl2 dl2:131072:32:1:l -cache:il1 il1:256:32:1:l -cache:il2 dl2 multi_quicksort2077261086
	sim-cache -cache:dl1 dl1:256:32:1:l -cache:dl2 dl2:65536:32:1:l -cache:il1 il1:256:32:1:l -cache:il2 dl2 multi_quicksort2077261086
	sim-cache -cache:dl1 dl1:1:32:256:l -cache:dl2 dl2:1:32:131072:l -cache:il1 il1:1:32:256:l -cache:il2 dl2 multi_quicksort2077261086
	sim-cache -cache:dl1 dl1:1:32:256:l -cache:dl2 dl2:1:32:65536:l -cache:il1 il1:1:32:256:l -cache:il2 dl2 multi_quicksort2077261086
	sim-bpred -bpred bimod -bpred:bimod 512 multi_quicksort2077261086
	sim-bpred -bpred bimod -bpred:bimod 1024 multi_quicksort2077261086
	sim-bpred -bpred bimod -bpred:bimod 2048 multi_quicksort2077261086
	sim-bpred -bpred 2lev -bpred:2lev 1 512 10 1 multi_quicksort2077261086
	sim-bpred -bpred 2lev -bpred:2lev 1 1024 10 1 multi_quicksort2077261086
	sim-bpred -bpred 2lev -bpred:2lev 1 2048 10 1 multi_quicksort2077261086
	sim-bpred -bpred 2lev -bpred:2lev 1 4096 10 1 multi_quicksort2077261086
	sslittle-na-sstrix-gcc -Wall -O3 -funroll-loops -finline-functions  -DRANDOM_SIZE=2097152 -DOFFSET=8 -DSORT=multi_quicksort sorts/multi_quicksort1815965572.c simpleMain.c -o multi_quicksort2077261086
	sim-cache -cache:dl1 dl1:256:32:1:l -cache:dl2 dl2:131072:32:1:l -cache:il1 il1:256:32:1:l -cache:il2 dl2 multi_quicksort2077261086
	sim-cache -cache:dl1 dl1:256:32:1:l -cache:dl2 dl2:65536:32:1:l -cache:il1 il1:256:32:1:l -cache:il2 dl2 multi_quicksort2077261086
	sim-cache -cache:dl1 dl1:1:32:256:l -cache:dl2 dl2:1:32:131072:l -cache:il1 il1:1:32:256:l -cache:il2 dl2 multi_quicksort2077261086
	sim-cache -cache:dl1 dl1:1:32:256:l -cache:dl2 dl2:1:32:65536:l -cache:il1 il1:1:32:256:l -cache:il2 dl2 multi_quicksort2077261086
	sim-bpred -bpred bimod -bpred:bimod 512 multi_quicksort2077261086
	sim-bpred -bpred bimod -bpred:bimod 1024 multi_quicksort2077261086
	sim-bpred -bpred bimod -bpred:bimod 2048 multi_quicksort2077261086
	sim-bpred -bpred 2lev -bpred:2lev 1 512 10 1 multi_quicksort2077261086
	sim-bpred -bpred 2lev -bpred:2lev 1 1024 10 1 multi_quicksort2077261086
	sim-bpred -bpred 2lev -bpred:2lev 1 2048 10 1 multi_quicksort2077261086
	sim-bpred -bpred 2lev -bpred:2lev 1 4096 10 1 multi_quicksort2077261086
	sslittle-na-sstrix-gcc -Wall -O3 -funroll-loops -finline-functions  -DRANDOM_SIZE=4194304 -DOFFSET=8 -DSORT=multi_quicksort sorts/multi_quicksort1815965572.c simpleMain.c -o multi_quicksort2077261086
	sim-cache -cache:dl1 dl1:256:32:1:l -cache:dl2 dl2:131072:32:1:l -cache:il1 il1:256:32:1:l -cache:il2 dl2 multi_quicksort2077261086
	sim-cache -cache:dl1 dl1:256:32:1:l -cache:dl2 dl2:65536:32:1:l -cache:il1 il1:256:32:1:l -cache:il2 dl2 multi_quicksort2077261086
	sim-cache -cache:dl1 dl1:1:32:256:l -cache:dl2 dl2:1:32:131072:l -cache:il1 il1:1:32:256:l -cache:il2 dl2 multi_quicksort2077261086
	sim-cache -cache:dl1 dl1:1:32:256:l -cache:dl2 dl2:1:32:65536:l -cache:il1 il1:1:32:256:l -cache:il2 dl2 multi_quicksort2077261086
	sim-bpred -bpred bimod -bpred:bimod 512 multi_quicksort2077261086
	sim-bpred -bpred bimod -bpred:bimod 1024 multi_quicksort2077261086
	sim-bpred -bpred bimod -bpred:bimod 2048 multi_quicksort2077261086
	sim-bpred -bpred 2lev -bpred:2lev 1 512 10 1 multi_quicksort2077261086
	sim-bpred -bpred 2lev -bpred:2lev 1 1024 10 1 multi_quicksort2077261086
	sim-bpred -bpred 2lev -bpred:2lev 1 2048 10 1 multi_quicksort2077261086
	sim-bpred -bpred 2lev -bpred:2lev 1 4096 10 1 multi_quicksort2077261086
