Thu Jul 14 23:13:14 2005
Run as: "./do_simple -c random.org5 -o 5 -M 65536 on2_bubblesort"
-------------------------------------------------------------------------------------------------
sim-cache                                     4096 |         4096 |         4096 |         4096 |         8192 |         8192 |         8192 |         8192 |        16384 |        16384 |        16384 |        16384 |        32768 |        32768 |        32768 |        32768 |        65536 |        65536 |        65536 |        65536 |
-cache:dl1 dl1:256:32:1:l -cache:dl2 dl2:131072:32:1:l -cache:il1 il1:256:32:1:l -cache:il2 dl2
-cache:dl1 dl1:256:32:1:l -cache:dl2 dl2:65536:32:1:l -cache:il1 il1:256:32:1:l -cache:il2 dl2
-cache:dl1 dl1:1:32:256:l -cache:dl2 dl2:1:32:131072:l -cache:il1 il1:1:32:256:l -cache:il2 dl2
-cache:dl1 dl1:1:32:256:l -cache:dl2 dl2:1:32:65536:l -cache:il1 il1:1:32:256:l -cache:il2 dl2
-------------------------------------------------------------------------------------------------
sim_num_insn                              71363953 |     71363953 |     71363953 |     71363953 |    285201387 |    285201387 |    285201387 |    285201387 |   1141567018 |   1141567018 |   1141567018 |   1141567018 |   4564698335 |   4564698335 |   4564698335 |   4564698335 |  18254267576 |  18254267576 |  18254267576 |  18254267576 |
sim_num_refs                              25189472 |     25189472 |     25189472 |     25189472 |    100623028 |    100623028 |    100623028 |    100623028 |    403077874 |    403077874 |    403077874 |    403077874 |   1611437586 |   1611437586 |   1611437586 |   1611437586 |   6442717072 |   6442717072 |   6442717072 |   6442717072 |
sim_elapsed_time                                20 |           20 |           26 |           23 |           81 |           81 |           90 |           84 |          325 |          325 |          336 |          327 |         1296 |         1296 |         1314 |         1294 |         5157 |         5133 |         5120 |         5099 |
sim_inst_rate                         3568197.6500 | 3568197.6500 | 2744767.4231 | 3102780.5652 | 3521004.7778 | 3521004.7778 | 3168904.3000 | 3395254.6071 | 3512513.9015 | 3512513.9015 | 3397520.8869 | 3491030.6361 | 3522143.7770 | 3522143.7770 | 3473895.2321 | 3527587.5850 | 3539706.7241 | 3556257.0770 | 3565286.6359 | 3579970.1071 |
il1.accesses                              71363953 |     71363953 |     71363953 |     71363953 |    285201387 |    285201387 |    285201387 |    285201387 |   1141567018 |   1141567018 |   1141567018 |   1141567018 |   4564698335 |   4564698335 |   4564698335 |   4564698335 |  18254267576 |  18254267576 |  18254267576 |  18254267576 |
il1.hits                                  71363587 |     71363587 |     71363646 |     71363646 |    285201019 |    285201019 |    285201078 |    285201078 |   1141566659 |   1141566659 |   1141566715 |   1141566715 |   4564697966 |   4564697966 |   4564698025 |   4564698025 |  18254267207 |  18254267207 |  18254267266 |  18254267266 |
il1.misses                                     366 |          366 |          307 |          307 |          368 |          368 |          309 |          309 |          359 |          359 |          303 |          303 |          369 |          369 |          310 |          310 |          369 |          369 |          310 |          310 |
il1.replacements                               178 |          178 |           51 |           51 |          179 |          179 |           53 |           53 |          174 |          174 |           47 |           47 |          180 |          180 |           54 |           54 |          180 |          180 |           54 |           54 |
il1.writebacks                                   0 |            0 |            0 |            0 |            0 |            0 |            0 |            0 |            0 |            0 |            0 |            0 |            0 |            0 |            0 |            0 |            0 |            0 |            0 |            0 |
il1.invalidations                                0 |            0 |            0 |            0 |            0 |            0 |            0 |            0 |            0 |            0 |            0 |            0 |            0 |            0 |            0 |            0 |            0 |            0 |            0 |            0 |
il1.miss_rate                               0.0000 |       0.0000 |       0.0000 |       0.0000 |       0.0000 |       0.0000 |       0.0000 |       0.0000 |       0.0000 |       0.0000 |       0.0000 |       0.0000 |       0.0000 |       0.0000 |       0.0000 |       0.0000 |       0.0000 |       0.0000 |       0.0000 |       0.0000 |
il1.repl_rate                               0.0000 |       0.0000 |       0.0000 |       0.0000 |       0.0000 |       0.0000 |       0.0000 |       0.0000 |       0.0000 |       0.0000 |       0.0000 |       0.0000 |       0.0000 |       0.0000 |       0.0000 |       0.0000 |       0.0000 |       0.0000 |       0.0000 |       0.0000 |
il1.wb_rate                                 0.0000 |       0.0000 |       0.0000 |       0.0000 |       0.0000 |       0.0000 |       0.0000 |       0.0000 |       0.0000 |       0.0000 |       0.0000 |       0.0000 |       0.0000 |       0.0000 |       0.0000 |       0.0000 |       0.0000 |       0.0000 |       0.0000 |       0.0000 |
il1.inv_rate                                0.0000 |       0.0000 |       0.0000 |       0.0000 |       0.0000 |       0.0000 |       0.0000 |       0.0000 |       0.0000 |       0.0000 |       0.0000 |       0.0000 |       0.0000 |       0.0000 |       0.0000 |       0.0000 |       0.0000 |       0.0000 |       0.0000 |       0.0000 |
dl1.accesses                              25205938 |     25205938 |     25205938 |     25205938 |    100655878 |    100655878 |    100655878 |    100655878 |    403143492 |    403143492 |    403143492 |    403143492 |   1611568740 |   1611568740 |   1611568740 |   1611568740 |   6442979298 |   6442979298 |   6442979298 |   6442979298 |
dl1.hits                                  24677624 |     24677624 |     24416504 |     24416504 |     96978252 |     96978252 |     96717132 |     96717132 |    386875786 |    386875786 |    386614666 |    386614666 |   1544955050 |   1544955050 |   1544693930 |   1544693930 |   6175010344 |   6175010344 |   6174749224 |   6174749224 |
dl1.misses                                  528314 |       528314 |       789434 |       789434 |      3677626 |      3677626 |      3938746 |      3938746 |     16267706 |     16267706 |     16528826 |     16528826 |     66613690 |     66613690 |     66874810 |     66874810 |    267968954 |    267968954 |    268230074 |    268230074 |
dl1.replacements                            528058 |       528058 |       789178 |       789178 |      3677370 |      3677370 |      3938490 |      3938490 |     16267450 |     16267450 |     16528570 |     16528570 |     66613434 |     66613434 |     66874554 |     66874554 |    267968698 |    267968698 |    268229818 |    268229818 |
dl1.writebacks                              501815 |       501815 |       756951 |       756951 |      3436423 |      3436423 |      3657831 |      3657831 |     14943642 |     14943642 |     15103041 |     15103041 |     60323180 |     60323180 |     60424183 |     60424183 |    241444773 |    241444773 |    241505174 |    241505174 |
dl1.invalidations                                0 |            0 |            0 |            0 |            0 |            0 |            0 |            0 |            0 |            0 |            0 |            0 |            0 |            0 |            0 |            0 |            0 |            0 |            0 |            0 |
dl1.miss_rate                               0.0210 |       0.0210 |       0.0313 |       0.0313 |       0.0365 |       0.0365 |       0.0391 |       0.0391 |       0.0404 |       0.0404 |       0.0410 |       0.0410 |       0.0413 |       0.0413 |       0.0415 |       0.0415 |       0.0416 |       0.0416 |       0.0416 |       0.0416 |
dl1.repl_rate                               0.0209 |       0.0209 |       0.0313 |       0.0313 |       0.0365 |       0.0365 |       0.0391 |       0.0391 |       0.0404 |       0.0404 |       0.0410 |       0.0410 |       0.0413 |       0.0413 |       0.0415 |       0.0415 |       0.0416 |       0.0416 |       0.0416 |       0.0416 |
dl1.wb_rate                                 0.0199 |       0.0199 |       0.0300 |       0.0300 |       0.0341 |       0.0341 |       0.0363 |       0.0363 |       0.0371 |       0.0371 |       0.0375 |       0.0375 |       0.0374 |       0.0374 |       0.0375 |       0.0375 |       0.0375 |       0.0375 |       0.0375 |       0.0375 |
dl1.inv_rate                                0.0000 |       0.0000 |       0.0000 |       0.0000 |       0.0000 |       0.0000 |       0.0000 |       0.0000 |       0.0000 |       0.0000 |       0.0000 |       0.0000 |       0.0000 |       0.0000 |       0.0000 |       0.0000 |       0.0000 |       0.0000 |       0.0000 |       0.0000 |
dl2.accesses                               1030495 |      1030495 |      1546692 |      1546692 |      7114417 |      7114417 |      7596886 |      7596886 |     31211707 |     31211707 |     31632170 |     31632170 |    126937239 |    126937239 |    127299303 |    127299303 |    509414096 |    509414096 |    509735558 |    509735558 |
dl2.hits                                   1029256 |      1029256 |      1545461 |      1545461 |      7112663 |      7112663 |      7595141 |      7595141 |     31208934 |     31208934 |     31629407 |     31629407 |    126932413 |    126932413 |    127294485 |    127294485 |    509405174 |    509405174 |    509726644 |    509726644 |
dl2.misses                                    1239 |         1239 |         1231 |         1231 |         1754 |         1754 |         1745 |         1745 |         2773 |         2773 |         2763 |         2763 |         4826 |         4826 |         4818 |         4818 |         8922 |         8922 |         8914 |         8914 |
dl2.replacements                                67 |           67 |            0 |            0 |           68 |           68 |            0 |            0 |           69 |           69 |            0 |            0 |           67 |           67 |            0 |            0 |           67 |           67 |            0 |            0 |
dl2.writebacks                                   1 |            1 |            0 |            0 |            1 |            1 |            0 |            0 |            1 |            1 |            0 |            0 |            1 |            1 |            0 |            0 |            1 |            1 |            0 |            0 |
dl2.invalidations                                0 |            0 |            0 |            0 |            0 |            0 |            0 |            0 |            0 |            0 |            0 |            0 |            0 |            0 |            0 |            0 |            0 |            0 |            0 |            0 |
dl2.miss_rate                               0.0012 |       0.0012 |       0.0008 |       0.0008 |       0.0002 |       0.0002 |       0.0002 |       0.0002 |       0.0001 |       0.0001 |       0.0001 |       0.0001 |       0.0000 |       0.0000 |       0.0000 |       0.0000 |       0.0000 |       0.0000 |       0.0000 |       0.0000 |
dl2.repl_rate                               0.0001 |       0.0001 |       0.0000 |       0.0000 |       0.0000 |       0.0000 |       0.0000 |       0.0000 |       0.0000 |       0.0000 |       0.0000 |       0.0000 |       0.0000 |       0.0000 |       0.0000 |       0.0000 |       0.0000 |       0.0000 |       0.0000 |       0.0000 |
dl2.wb_rate                                 0.0000 |       0.0000 |       0.0000 |       0.0000 |       0.0000 |       0.0000 |       0.0000 |       0.0000 |       0.0000 |       0.0000 |       0.0000 |       0.0000 |       0.0000 |       0.0000 |       0.0000 |       0.0000 |       0.0000 |       0.0000 |       0.0000 |       0.0000 |
dl2.inv_rate                                0.0000 |       0.0000 |       0.0000 |       0.0000 |       0.0000 |       0.0000 |       0.0000 |       0.0000 |       0.0000 |       0.0000 |       0.0000 |       0.0000 |       0.0000 |       0.0000 |       0.0000 |       0.0000 |       0.0000 |       0.0000 |       0.0000 |       0.0000 |
itlb.accesses                             71363953 |     71363953 |     71363953 |     71363953 |    285201387 |    285201387 |    285201387 |    285201387 |   1141567018 |   1141567018 |   1141567018 |   1141567018 |   4564698335 |   4564698335 |   4564698335 |   4564698335 |  18254267576 |  18254267576 |  18254267576 |  18254267576 |
itlb.hits                                 71363944 |     71363944 |     71363944 |     71363944 |    285201378 |    285201378 |    285201378 |    285201378 |   1141567009 |   1141567009 |   1141567009 |   1141567009 |   4564698326 |   4564698326 |   4564698326 |   4564698326 |  18254267567 |  18254267567 |  18254267567 |  18254267567 |
itlb.misses                                      9 |            9 |            9 |            9 |            9 |            9 |            9 |            9 |            9 |            9 |            9 |            9 |            9 |            9 |            9 |            9 |            9 |            9 |            9 |            9 |
itlb.replacements                                0 |            0 |            0 |            0 |            0 |            0 |            0 |            0 |            0 |            0 |            0 |            0 |            0 |            0 |            0 |            0 |            0 |            0 |            0 |            0 |
itlb.writebacks                                  0 |            0 |            0 |            0 |            0 |            0 |            0 |            0 |            0 |            0 |            0 |            0 |            0 |            0 |            0 |            0 |            0 |            0 |            0 |            0 |
itlb.invalidations                               0 |            0 |            0 |            0 |            0 |            0 |            0 |            0 |            0 |            0 |            0 |            0 |            0 |            0 |            0 |            0 |            0 |            0 |            0 |            0 |
itlb.miss_rate                              0.0000 |       0.0000 |       0.0000 |       0.0000 |       0.0000 |       0.0000 |       0.0000 |       0.0000 |       0.0000 |       0.0000 |       0.0000 |       0.0000 |       0.0000 |       0.0000 |       0.0000 |       0.0000 |       0.0000 |       0.0000 |       0.0000 |       0.0000 |
itlb.repl_rate                              0.0000 |       0.0000 |       0.0000 |       0.0000 |       0.0000 |       0.0000 |       0.0000 |       0.0000 |       0.0000 |       0.0000 |       0.0000 |       0.0000 |       0.0000 |       0.0000 |       0.0000 |       0.0000 |       0.0000 |       0.0000 |       0.0000 |       0.0000 |
itlb.wb_rate                                0.0000 |       0.0000 |       0.0000 |       0.0000 |       0.0000 |       0.0000 |       0.0000 |       0.0000 |       0.0000 |       0.0000 |       0.0000 |       0.0000 |       0.0000 |       0.0000 |       0.0000 |       0.0000 |       0.0000 |       0.0000 |       0.0000 |       0.0000 |
itlb.inv_rate                               0.0000 |       0.0000 |       0.0000 |       0.0000 |       0.0000 |       0.0000 |       0.0000 |       0.0000 |       0.0000 |       0.0000 |       0.0000 |       0.0000 |       0.0000 |       0.0000 |       0.0000 |       0.0000 |       0.0000 |       0.0000 |       0.0000 |       0.0000 |
dtlb.accesses                             25205938 |     25205938 |     25205938 |     25205938 |    100655878 |    100655878 |    100655878 |    100655878 |    403143492 |    403143492 |    403143492 |    403143492 |   1611568740 |   1611568740 |   1611568740 |   1611568740 |   6442979298 |   6442979298 |   6442979298 |   6442979298 |
dtlb.hits                                 25205927 |     25205927 |     25205927 |     25205927 |    100655863 |    100655863 |    100655863 |    100655863 |    403143469 |    403143469 |    403143469 |    403143469 |   1611568701 |   1611568701 |   1611568701 |   1611568701 |   6442979227 |   6442979227 |   6442979227 |   6442979227 |
dtlb.misses                                     11 |           11 |           11 |           11 |           15 |           15 |           15 |           15 |           23 |           23 |           23 |           23 |           39 |           39 |           39 |           39 |           71 |           71 |           71 |           71 |
dtlb.replacements                                0 |            0 |            0 |            0 |            0 |            0 |            0 |            0 |            0 |            0 |            0 |            0 |            0 |            0 |            0 |            0 |            0 |            0 |            0 |            0 |
dtlb.writebacks                                  0 |            0 |            0 |            0 |            0 |            0 |            0 |            0 |            0 |            0 |            0 |            0 |            0 |            0 |            0 |            0 |            0 |            0 |            0 |            0 |
dtlb.invalidations                               0 |            0 |            0 |            0 |            0 |            0 |            0 |            0 |            0 |            0 |            0 |            0 |            0 |            0 |            0 |            0 |            0 |            0 |            0 |            0 |
dtlb.miss_rate                              0.0000 |       0.0000 |       0.0000 |       0.0000 |       0.0000 |       0.0000 |       0.0000 |       0.0000 |       0.0000 |       0.0000 |       0.0000 |       0.0000 |       0.0000 |       0.0000 |       0.0000 |       0.0000 |       0.0000 |       0.0000 |       0.0000 |       0.0000 |
dtlb.repl_rate                              0.0000 |       0.0000 |       0.0000 |       0.0000 |       0.0000 |       0.0000 |       0.0000 |       0.0000 |       0.0000 |       0.0000 |       0.0000 |       0.0000 |       0.0000 |       0.0000 |       0.0000 |       0.0000 |       0.0000 |       0.0000 |       0.0000 |       0.0000 |
dtlb.wb_rate                                0.0000 |       0.0000 |       0.0000 |       0.0000 |       0.0000 |       0.0000 |       0.0000 |       0.0000 |       0.0000 |       0.0000 |       0.0000 |       0.0000 |       0.0000 |       0.0000 |       0.0000 |       0.0000 |       0.0000 |       0.0000 |       0.0000 |       0.0000 |
dtlb.inv_rate                               0.0000 |       0.0000 |       0.0000 |       0.0000 |       0.0000 |       0.0000 |       0.0000 |       0.0000 |       0.0000 |       0.0000 |       0.0000 |       0.0000 |       0.0000 |       0.0000 |       0.0000 |       0.0000 |       0.0000 |       0.0000 |       0.0000 |       0.0000 |
ld_text_base                            0x00400000 |   0x00400000 |   0x00400000 |   0x00400000 |   0x00400000 |   0x00400000 |   0x00400000 |   0x00400000 |   0x00400000 |   0x00400000 |   0x00400000 |   0x00400000 |   0x00400000 |   0x00400000 |   0x00400000 |   0x00400000 |   0x00400000 |   0x00400000 |   0x00400000 |   0x00400000 |
ld_text_size                                 70896 |        70896 |        70896 |        70896 |        70928 |        70928 |        70928 |        70928 |        70944 |        70944 |        70944 |        70944 |        70960 |        70960 |        70960 |        70960 |        70960 |        70960 |        70960 |        70960 |
ld_data_base                            0x10000000 |   0x10000000 |   0x10000000 |   0x10000000 |   0x10000000 |   0x10000000 |   0x10000000 |   0x10000000 |   0x10000000 |   0x10000000 |   0x10000000 |   0x10000000 |   0x10000000 |   0x10000000 |   0x10000000 |   0x10000000 |   0x10000000 |   0x10000000 |   0x10000000 |   0x10000000 |
ld_data_size                                  8192 |         8192 |         8192 |         8192 |         8192 |         8192 |         8192 |         8192 |         8192 |         8192 |         8192 |         8192 |         8192 |         8192 |         8192 |         8192 |         8192 |         8192 |         8192 |         8192 |
ld_stack_base                           0x7fffc000 |   0x7fffc000 |   0x7fffc000 |   0x7fffc000 |   0x7fffc000 |   0x7fffc000 |   0x7fffc000 |   0x7fffc000 |   0x7fffc000 |   0x7fffc000 |   0x7fffc000 |   0x7fffc000 |   0x7fffc000 |   0x7fffc000 |   0x7fffc000 |   0x7fffc000 |   0x7fffc000 |   0x7fffc000 |   0x7fffc000 |   0x7fffc000 |
ld_stack_size                                16384 |        16384 |        16384 |        16384 |        16384 |        16384 |        16384 |        16384 |        16384 |        16384 |        16384 |        16384 |        16384 |        16384 |        16384 |        16384 |        16384 |        16384 |        16384 |        16384 |
ld_prog_entry                           0x00400140 |   0x00400140 |   0x00400140 |   0x00400140 |   0x00400140 |   0x00400140 |   0x00400140 |   0x00400140 |   0x00400140 |   0x00400140 |   0x00400140 |   0x00400140 |   0x00400140 |   0x00400140 |   0x00400140 |   0x00400140 |   0x00400140 |   0x00400140 |   0x00400140 |   0x00400140 |
ld_environ_base                         0x7fff8000 |   0x7fff8000 |   0x7fff8000 |   0x7fff8000 |   0x7fff8000 |   0x7fff8000 |   0x7fff8000 |   0x7fff8000 |   0x7fff8000 |   0x7fff8000 |   0x7fff8000 |   0x7fff8000 |   0x7fff8000 |   0x7fff8000 |   0x7fff8000 |   0x7fff8000 |   0x7fff8000 |   0x7fff8000 |   0x7fff8000 |   0x7fff8000 |
ld_target_big_endian                             0 |            0 |            0 |            0 |            0 |            0 |            0 |            0 |            0 |            0 |            0 |            0 |            0 |            0 |            0 |            0 |            0 |            0 |            0 |            0 |
mem.page_count                                  29 |           29 |           29 |           29 |           33 |           33 |           33 |           33 |           41 |           41 |           41 |           41 |           57 |           57 |           57 |           57 |           89 |           89 |           89 |           89 |
mem.page_mem                                  116k |         116k |         116k |         116k |         132k |         132k |         132k |         132k |         164k |         164k |         164k |         164k |         228k |         228k |         228k |         228k |         356k |         356k |         356k |         356k |
mem.ptab_misses                                 29 |           29 |           29 |           29 |           33 |           33 |           33 |           33 |           41 |           41 |           41 |           41 |           57 |           57 |           57 |           57 |           89 |           89 |           89 |           89 |
mem.ptab_accesses                        336307650 |    336307650 |    336307650 |    336307650 |   1342557458 |   1342557458 |   1342557458 |   1342557458 |   5372995306 |   5372995306 |   5372995306 |   5372995306 |  21482371166 |  21482371166 |  21482371166 |  21482371166 |  85903469246 |  85903469246 |  85903469246 |  85903469246 |
mem.ptab_miss_rate                          0.0000 |       0.0000 |       0.0000 |       0.0000 |       0.0000 |       0.0000 |       0.0000 |       0.0000 |       0.0000 |       0.0000 |       0.0000 |       0.0000 |       0.0000 |       0.0000 |       0.0000 |       0.0000 |       0.0000 |       0.0000 |       0.0000 |       0.0000 |
-------------------------------------------------------------------------------------------------
sim-bpred                                     4096 |         4096 |         4096 |         4096 |         4096 |         4096 |         4096 |         8192 |         8192 |         8192 |         8192 |         8192 |         8192 |         8192 |        16384 |        16384 |        16384 |        16384 |        16384 |        16384 |        16384 |        32768 |        32768 |        32768 |        32768 |        32768 |        32768 |        32768 |        65536 |        65536 |        65536 |        65536 |        65536 |        65536 |        65536 |
-bpred bimod -bpred:bimod 512
-bpred bimod -bpred:bimod 1024
-bpred bimod -bpred:bimod 2048
-bpred 2lev -bpred:2lev 1 512 10 1
-bpred 2lev -bpred:2lev 1 1024 10 1
-bpred 2lev -bpred:2lev 1 2048 10 1
-bpred 2lev -bpred:2lev 1 4096 10 1
-------------------------------------------------------------------------------------------------
sim_num_insn                              71363953 |     71363953 |     71363953 |     71363953 |     71363953 |     71363953 |     71363953 |    285201387 |    285201387 |    285201387 |    285201387 |    285201387 |    285201387 |    285201387 |   1141567018 |   1141567018 |   1141567018 |   1141567018 |   1141567018 |   1141567018 |   1141567018 |   4564698335 |   4564698335 |   4564698335 |   4564698335 |   4564698335 |   4564698335 |   4564698335 |  18254267576 |  18254267576 |  18254267576 |  18254267576 |  18254267576 |  18254267576 |  18254267576 |
sim_num_refs                              25189472 |     25189472 |     25189472 |     25189472 |     25189472 |     25189472 |     25189472 |    100623028 |    100623028 |    100623028 |    100623028 |    100623028 |    100623028 |    100623028 |    403077874 |    403077874 |    403077874 |    403077874 |    403077874 |    403077874 |    403077874 |   1611437586 |   1611437586 |   1611437586 |   1611437586 |   1611437586 |   1611437586 |   1611437586 |   6442717072 |   6442717072 |   6442717072 |   6442717072 |   6442717072 |   6442717072 |   6442717072 |
sim_elapsed_time                                10 |            9 |           10 |           10 |           10 |            9 |           10 |           38 |           38 |           39 |           39 |           39 |           39 |           39 |          153 |          152 |          154 |          156 |          156 |          156 |          157 |          613 |          617 |          618 |          622 |          622 |          619 |          618 |         2466 |         2524 |         2468 |         2466 |         2461 |         2483 |         2485 |
sim_inst_rate                         7136395.3000 | 7929328.1111 | 7136395.3000 | 7136395.3000 | 7136395.3000 | 7929328.1111 | 7136395.3000 | 7505299.6579 | 7505299.6579 | 7312856.0769 | 7312856.0769 | 7312856.0769 | 7312856.0769 | 7312856.0769 | 7461222.3399 | 7510309.3289 | 7412772.8442 | 7317737.2949 | 7317737.2949 | 7317737.2949 | 7271127.5032 | 7446489.9429 | 7398214.4814 | 7386243.2605 | 7338743.3039 | 7338743.3039 | 7374310.7189 | 7386243.2605 | 7402379.3901 | 7232277.1696 | 7396380.7034 | 7402379.3901 | 7417418.7631 | 7351698.5807 | 7345781.7207 |
sim_num_branches                          16778231 |     16778231 |     16778231 |     16778231 |     16778231 |     16778231 |     16778231 |     67109608 |     67109608 |     67109608 |     67109608 |     67109608 |     67109608 |     67109608 |    268426943 |    268426943 |    268426943 |    268426943 |    268426943 |    268426943 |    268426943 |   1073674148 |   1073674148 |   1073674148 |   1073674148 |   1073674148 |   1073674148 |   1073674148 |   4294901087 |   4294901087 |   4294901087 |   4294901087 |   4294901087 |   4294901087 |   4294901087 |
sim_IPB                                     4.2534 |       4.2534 |       4.2534 |       4.2534 |       4.2534 |       4.2534 |       4.2534 |       4.2498 |       4.2498 |       4.2498 |       4.2498 |       4.2498 |       4.2498 |       4.2498 |       4.2528 |       4.2528 |       4.2528 |       4.2528 |       4.2528 |       4.2528 |       4.2528 |       4.2515 |       4.2515 |       4.2515 |       4.2515 |       4.2515 |       4.2515 |       4.2515 |       4.2502 |       4.2502 |       4.2502 |       4.2502 |       4.2502 |       4.2502 |       4.2502 |
bpred_bimod.lookups                       16778231 |     16778231 |     16778231 |xxxxxxxxxxxxx |xxxxxxxxxxxxx |xxxxxxxxxxxxx |xxxxxxxxxxxxx |     67109608 |     67109608 |     67109608 |xxxxxxxxxxxxx |xxxxxxxxxxxxx |xxxxxxxxxxxxx |xxxxxxxxxxxxx |    268426943 |    268426943 |    268426943 |xxxxxxxxxxxxx |xxxxxxxxxxxxx |xxxxxxxxxxxxx |xxxxxxxxxxxxx |   1073674148 |   1073674148 |   1073674148 |xxxxxxxxxxxxx |xxxxxxxxxxxxx |xxxxxxxxxxxxx |xxxxxxxxxxxxx |   4294901087 |   4294901087 |   4294901087 |
bpred_bimod.updates                       16778231 |     16778231 |     16778231 |xxxxxxxxxxxxx |xxxxxxxxxxxxx |xxxxxxxxxxxxx |xxxxxxxxxxxxx |     67109608 |     67109608 |     67109608 |xxxxxxxxxxxxx |xxxxxxxxxxxxx |xxxxxxxxxxxxx |xxxxxxxxxxxxx |    268426943 |    268426943 |    268426943 |xxxxxxxxxxxxx |xxxxxxxxxxxxx |xxxxxxxxxxxxx |xxxxxxxxxxxxx |   1073674148 |   1073674148 |   1073674148 |xxxxxxxxxxxxx |xxxxxxxxxxxxx |xxxxxxxxxxxxx |xxxxxxxxxxxxx |   4294901087 |   4294901087 |   4294901087 |
bpred_bimod.addr_hits                     14397725 |     14397727 |     14397728 |xxxxxxxxxxxxx |xxxxxxxxxxxxx |xxxxxxxxxxxxx |xxxxxxxxxxxxx |     57583233 |     57583235 |     57583235 |xxxxxxxxxxxxx |xxxxxxxxxxxxx |xxxxxxxxxxxxx |xxxxxxxxxxxxx |    230035620 |    230035621 |    230035621 |xxxxxxxxxxxxx |xxxxxxxxxxxxx |xxxxxxxxxxxxx |xxxxxxxxxxxxx |    920561866 |    920561868 |    920561868 |xxxxxxxxxxxxx |xxxxxxxxxxxxx |xxxxxxxxxxxxx |xxxxxxxxxxxxx |   3684580383 |   3684580385 |   3684580385 |
bpred_bimod.dir_hits                      14397819 |     14397820 |     14397820 |xxxxxxxxxxxxx |xxxxxxxxxxxxx |xxxxxxxxxxxxx |xxxxxxxxxxxxx |     57583327 |     57583328 |     57583327 |xxxxxxxxxxxxx |xxxxxxxxxxxxx |xxxxxxxxxxxxx |xxxxxxxxxxxxx |    230035715 |    230035714 |    230035713 |xxxxxxxxxxxxx |xxxxxxxxxxxxx |xxxxxxxxxxxxx |xxxxxxxxxxxxx |    920561961 |    920561962 |    920561959 |xxxxxxxxxxxxx |xxxxxxxxxxxxx |xxxxxxxxxxxxx |xxxxxxxxxxxxx |   3684580478 |   3684580479 |   3684580476 |
bpred_bimod.misses                         2380412 |      2380411 |      2380411 |xxxxxxxxxxxxx |xxxxxxxxxxxxx |xxxxxxxxxxxxx |xxxxxxxxxxxxx |      9526281 |      9526280 |      9526281 |xxxxxxxxxxxxx |xxxxxxxxxxxxx |xxxxxxxxxxxxx |xxxxxxxxxxxxx |     38391228 |     38391229 |     38391230 |xxxxxxxxxxxxx |xxxxxxxxxxxxx |xxxxxxxxxxxxx |xxxxxxxxxxxxx |    153112187 |    153112186 |    153112189 |xxxxxxxxxxxxx |xxxxxxxxxxxxx |xxxxxxxxxxxxx |xxxxxxxxxxxxx |    610320609 |    610320608 |    610320611 |
bpred_bimod.jr_hits                             57 |           57 |           57 |xxxxxxxxxxxxx |xxxxxxxxxxxxx |xxxxxxxxxxxxx |xxxxxxxxxxxxx |           57 |           57 |           57 |xxxxxxxxxxxxx |xxxxxxxxxxxxx |xxxxxxxxxxxxx |xxxxxxxxxxxxx |           57 |           57 |           57 |xxxxxxxxxxxxx |xxxxxxxxxxxxx |xxxxxxxxxxxxx |xxxxxxxxxxxxx |           57 |           57 |           57 |xxxxxxxxxxxxx |xxxxxxxxxxxxx |xxxxxxxxxxxxx |xxxxxxxxxxxxx |           57 |           57 |           57 |
bpred_bimod.jr_seen                             58 |           58 |           58 |xxxxxxxxxxxxx |xxxxxxxxxxxxx |xxxxxxxxxxxxx |xxxxxxxxxxxxx |           58 |           58 |           58 |xxxxxxxxxxxxx |xxxxxxxxxxxxx |xxxxxxxxxxxxx |xxxxxxxxxxxxx |           58 |           58 |           58 |xxxxxxxxxxxxx |xxxxxxxxxxxxx |xxxxxxxxxxxxx |xxxxxxxxxxxxx |           58 |           58 |           58 |xxxxxxxxxxxxx |xxxxxxxxxxxxx |xxxxxxxxxxxxx |xxxxxxxxxxxxx |           58 |           58 |           58 |
bpred_bimod.jr_non_ras_hits.PP                   0 |            0 |            0 |xxxxxxxxxxxxx |xxxxxxxxxxxxx |xxxxxxxxxxxxx |xxxxxxxxxxxxx |            0 |            0 |            0 |xxxxxxxxxxxxx |xxxxxxxxxxxxx |xxxxxxxxxxxxx |xxxxxxxxxxxxx |            0 |            0 |            0 |xxxxxxxxxxxxx |xxxxxxxxxxxxx |xxxxxxxxxxxxx |xxxxxxxxxxxxx |            0 |            0 |            0 |xxxxxxxxxxxxx |xxxxxxxxxxxxx |xxxxxxxxxxxxx |xxxxxxxxxxxxx |            0 |            0 |            0 |
bpred_bimod.jr_non_ras_seen.PP                   0 |            0 |            0 |xxxxxxxxxxxxx |xxxxxxxxxxxxx |xxxxxxxxxxxxx |xxxxxxxxxxxxx |            0 |            0 |            0 |xxxxxxxxxxxxx |xxxxxxxxxxxxx |xxxxxxxxxxxxx |xxxxxxxxxxxxx |            0 |            0 |            0 |xxxxxxxxxxxxx |xxxxxxxxxxxxx |xxxxxxxxxxxxx |xxxxxxxxxxxxx |            0 |            0 |            0 |xxxxxxxxxxxxx |xxxxxxxxxxxxx |xxxxxxxxxxxxx |xxxxxxxxxxxxx |            0 |            0 |            0 |
bpred_bimod.bpred_addr_rate                 0.8581 |       0.8581 |       0.8581 |xxxxxxxxxxxxx |xxxxxxxxxxxxx |xxxxxxxxxxxxx |xxxxxxxxxxxxx |       0.8580 |       0.8580 |       0.8580 |xxxxxxxxxxxxx |xxxxxxxxxxxxx |xxxxxxxxxxxxx |xxxxxxxxxxxxx |       0.8570 |       0.8570 |       0.8570 |xxxxxxxxxxxxx |xxxxxxxxxxxxx |xxxxxxxxxxxxx |xxxxxxxxxxxxx |       0.8574 |       0.8574 |       0.8574 |xxxxxxxxxxxxx |xxxxxxxxxxxxx |xxxxxxxxxxxxx |xxxxxxxxxxxxx |       0.8579 |       0.8579 |       0.8579 |
bpred_bimod.bpred_dir_rate                  0.8581 |       0.8581 |       0.8581 |xxxxxxxxxxxxx |xxxxxxxxxxxxx |xxxxxxxxxxxxx |xxxxxxxxxxxxx |       0.8580 |       0.8580 |       0.8580 |xxxxxxxxxxxxx |xxxxxxxxxxxxx |xxxxxxxxxxxxx |xxxxxxxxxxxxx |       0.8570 |       0.8570 |       0.8570 |xxxxxxxxxxxxx |xxxxxxxxxxxxx |xxxxxxxxxxxxx |xxxxxxxxxxxxx |       0.8574 |       0.8574 |       0.8574 |xxxxxxxxxxxxx |xxxxxxxxxxxxx |xxxxxxxxxxxxx |xxxxxxxxxxxxx |       0.8579 |       0.8579 |       0.8579 |
bpred_bimod.bpred_jr_rate                   0.9828 |       0.9828 |       0.9828 |xxxxxxxxxxxxx |xxxxxxxxxxxxx |xxxxxxxxxxxxx |xxxxxxxxxxxxx |       0.9828 |       0.9828 |       0.9828 |xxxxxxxxxxxxx |xxxxxxxxxxxxx |xxxxxxxxxxxxx |xxxxxxxxxxxxx |       0.9828 |       0.9828 |       0.9828 |xxxxxxxxxxxxx |xxxxxxxxxxxxx |xxxxxxxxxxxxx |xxxxxxxxxxxxx |       0.9828 |       0.9828 |       0.9828 |xxxxxxxxxxxxx |xxxxxxxxxxxxx |xxxxxxxxxxxxx |xxxxxxxxxxxxx |       0.9828 |       0.9828 |       0.9828 |
bpred_bimod.bpred_jr_non_ras_rate.PP       <error: |      <error: |      <error: |xxxxxxxxxxxxx |xxxxxxxxxxxxx |xxxxxxxxxxxxx |xxxxxxxxxxxxx |      <error: |      <error: |      <error: |xxxxxxxxxxxxx |xxxxxxxxxxxxx |xxxxxxxxxxxxx |xxxxxxxxxxxxx |      <error: |      <error: |      <error: |xxxxxxxxxxxxx |xxxxxxxxxxxxx |xxxxxxxxxxxxx |xxxxxxxxxxxxx |      <error: |      <error: |      <error: |xxxxxxxxxxxxx |xxxxxxxxxxxxx |xxxxxxxxxxxxx |xxxxxxxxxxxxx |      <error: |      <error: |      <error: |
bpred_bimod.retstack_pushes                     60 |           60 |           60 |xxxxxxxxxxxxx |xxxxxxxxxxxxx |xxxxxxxxxxxxx |xxxxxxxxxxxxx |           60 |           60 |           60 |xxxxxxxxxxxxx |xxxxxxxxxxxxx |xxxxxxxxxxxxx |xxxxxxxxxxxxx |           60 |           60 |           60 |xxxxxxxxxxxxx |xxxxxxxxxxxxx |xxxxxxxxxxxxx |xxxxxxxxxxxxx |           60 |           60 |           60 |xxxxxxxxxxxxx |xxxxxxxxxxxxx |xxxxxxxxxxxxx |xxxxxxxxxxxxx |           60 |           60 |           60 |
bpred_bimod.retstack_pops                       58 |           58 |           58 |xxxxxxxxxxxxx |xxxxxxxxxxxxx |xxxxxxxxxxxxx |xxxxxxxxxxxxx |           58 |           58 |           58 |xxxxxxxxxxxxx |xxxxxxxxxxxxx |xxxxxxxxxxxxx |xxxxxxxxxxxxx |           58 |           58 |           58 |xxxxxxxxxxxxx |xxxxxxxxxxxxx |xxxxxxxxxxxxx |xxxxxxxxxxxxx |           58 |           58 |           58 |xxxxxxxxxxxxx |xxxxxxxxxxxxx |xxxxxxxxxxxxx |xxxxxxxxxxxxx |           58 |           58 |           58 |
bpred_bimod.used_ras.PP                         58 |           58 |           58 |xxxxxxxxxxxxx |xxxxxxxxxxxxx |xxxxxxxxxxxxx |xxxxxxxxxxxxx |           58 |           58 |           58 |xxxxxxxxxxxxx |xxxxxxxxxxxxx |xxxxxxxxxxxxx |xxxxxxxxxxxxx |           58 |           58 |           58 |xxxxxxxxxxxxx |xxxxxxxxxxxxx |xxxxxxxxxxxxx |xxxxxxxxxxxxx |           58 |           58 |           58 |xxxxxxxxxxxxx |xxxxxxxxxxxxx |xxxxxxxxxxxxx |xxxxxxxxxxxxx |           58 |           58 |           58 |
bpred_bimod.ras_hits.PP                         57 |           57 |           57 |xxxxxxxxxxxxx |xxxxxxxxxxxxx |xxxxxxxxxxxxx |xxxxxxxxxxxxx |           57 |           57 |           57 |xxxxxxxxxxxxx |xxxxxxxxxxxxx |xxxxxxxxxxxxx |xxxxxxxxxxxxx |           57 |           57 |           57 |xxxxxxxxxxxxx |xxxxxxxxxxxxx |xxxxxxxxxxxxx |xxxxxxxxxxxxx |           57 |           57 |           57 |xxxxxxxxxxxxx |xxxxxxxxxxxxx |xxxxxxxxxxxxx |xxxxxxxxxxxxx |           57 |           57 |           57 |
bpred_bimod.ras_rate.PP                     0.9828 |       0.9828 |       0.9828 |xxxxxxxxxxxxx |xxxxxxxxxxxxx |xxxxxxxxxxxxx |xxxxxxxxxxxxx |       0.9828 |       0.9828 |       0.9828 |xxxxxxxxxxxxx |xxxxxxxxxxxxx |xxxxxxxxxxxxx |xxxxxxxxxxxxx |       0.9828 |       0.9828 |       0.9828 |xxxxxxxxxxxxx |xxxxxxxxxxxxx |xxxxxxxxxxxxx |xxxxxxxxxxxxx |       0.9828 |       0.9828 |       0.9828 |xxxxxxxxxxxxx |xxxxxxxxxxxxx |xxxxxxxxxxxxx |xxxxxxxxxxxxx |       0.9828 |       0.9828 |       0.9828 |
bpred_2lev.lookups                   xxxxxxxxxxxxx |xxxxxxxxxxxxx |xxxxxxxxxxxxx |     16778231 |     16778231 |     16778231 |     16778231 |xxxxxxxxxxxxx |xxxxxxxxxxxxx |xxxxxxxxxxxxx |     67109608 |     67109608 |     67109608 |     67109608 |xxxxxxxxxxxxx |xxxxxxxxxxxxx |xxxxxxxxxxxxx |    268426943 |    268426943 |    268426943 |    268426943 |xxxxxxxxxxxxx |xxxxxxxxxxxxx |xxxxxxxxxxxxx |   1073674148 |   1073674148 |   1073674148 |   1073674148 |xxxxxxxxxxxxx |xxxxxxxxxxxxx |xxxxxxxxxxxxx |   4294901087 |   4294901087 |   4294901087 |   4294901087 |
bpred_2lev.updates                   xxxxxxxxxxxxx |xxxxxxxxxxxxx |xxxxxxxxxxxxx |     16778231 |     16778231 |     16778231 |     16778231 |xxxxxxxxxxxxx |xxxxxxxxxxxxx |xxxxxxxxxxxxx |     67109608 |     67109608 |     67109608 |     67109608 |xxxxxxxxxxxxx |xxxxxxxxxxxxx |xxxxxxxxxxxxx |    268426943 |    268426943 |    268426943 |    268426943 |xxxxxxxxxxxxx |xxxxxxxxxxxxx |xxxxxxxxxxxxx |   1073674148 |   1073674148 |   1073674148 |   1073674148 |xxxxxxxxxxxxx |xxxxxxxxxxxxx |xxxxxxxxxxxxx |   4294901087 |   4294901087 |   4294901087 |   4294901087 |
bpred_2lev.addr_hits                 xxxxxxxxxxxxx |xxxxxxxxxxxxx |xxxxxxxxxxxxx |     14335588 |     14292984 |     14294846 |     14312338 |xxxxxxxxxxxxx |xxxxxxxxxxxxx |xxxxxxxxxxxxx |     57348868 |     57267405 |     57271255 |     57337067 |xxxxxxxxxxxxx |xxxxxxxxxxxxx |xxxxxxxxxxxxx |    229324464 |    229215720 |    229223361 |    229482105 |xxxxxxxxxxxxx |xxxxxxxxxxxxx |xxxxxxxxxxxxx |    918414110 |    918248341 |    918263463 |    919315739 |xxxxxxxxxxxxx |xxxxxxxxxxxxx |xxxxxxxxxxxxx |   3676445525 |   3677075735 |   3677106779 |   3681512137 |
bpred_2lev.dir_hits                  xxxxxxxxxxxxx |xxxxxxxxxxxxx |xxxxxxxxxxxxx |     14335684 |     14293076 |     14294937 |     14312431 |xxxxxxxxxxxxx |xxxxxxxxxxxxx |xxxxxxxxxxxxx |     57348970 |     57267502 |     57271350 |     57337160 |xxxxxxxxxxxxx |xxxxxxxxxxxxx |xxxxxxxxxxxxx |    229324564 |    229215817 |    229223455 |    229482198 |xxxxxxxxxxxxx |xxxxxxxxxxxxx |xxxxxxxxxxxxx |    918414210 |    918248434 |    918263553 |    919315830 |xxxxxxxxxxxxx |xxxxxxxxxxxxx |xxxxxxxxxxxxx |   3676445627 |   3677075829 |   3677106869 |   3681512228 |
bpred_2lev.misses                    xxxxxxxxxxxxx |xxxxxxxxxxxxx |xxxxxxxxxxxxx |      2442547 |      2485155 |      2483294 |      2465800 |xxxxxxxxxxxxx |xxxxxxxxxxxxx |xxxxxxxxxxxxx |      9760638 |      9842106 |      9838258 |      9772448 |xxxxxxxxxxxxx |xxxxxxxxxxxxx |xxxxxxxxxxxxx |     39102379 |     39211126 |     39203488 |     38944745 |xxxxxxxxxxxxx |xxxxxxxxxxxxx |xxxxxxxxxxxxx |    155259938 |    155425714 |    155410595 |    154358318 |xxxxxxxxxxxxx |xxxxxxxxxxxxx |xxxxxxxxxxxxx |    618455460 |    617825258 |    617794218 |    613388859 |
bpred_2lev.jr_hits                   xxxxxxxxxxxxx |xxxxxxxxxxxxx |xxxxxxxxxxxxx |           57 |           57 |           57 |           57 |xxxxxxxxxxxxx |xxxxxxxxxxxxx |xxxxxxxxxxxxx |           57 |           57 |           57 |           57 |xxxxxxxxxxxxx |xxxxxxxxxxxxx |xxxxxxxxxxxxx |           57 |           57 |           57 |           57 |xxxxxxxxxxxxx |xxxxxxxxxxxxx |xxxxxxxxxxxxx |           57 |           57 |           57 |           57 |xxxxxxxxxxxxx |xxxxxxxxxxxxx |xxxxxxxxxxxxx |           57 |           57 |           57 |           57 |
bpred_2lev.jr_seen                   xxxxxxxxxxxxx |xxxxxxxxxxxxx |xxxxxxxxxxxxx |           58 |           58 |           58 |           58 |xxxxxxxxxxxxx |xxxxxxxxxxxxx |xxxxxxxxxxxxx |           58 |           58 |           58 |           58 |xxxxxxxxxxxxx |xxxxxxxxxxxxx |xxxxxxxxxxxxx |           58 |           58 |           58 |           58 |xxxxxxxxxxxxx |xxxxxxxxxxxxx |xxxxxxxxxxxxx |           58 |           58 |           58 |           58 |xxxxxxxxxxxxx |xxxxxxxxxxxxx |xxxxxxxxxxxxx |           58 |           58 |           58 |           58 |
bpred_2lev.jr_non_ras_hits.PP        xxxxxxxxxxxxx |xxxxxxxxxxxxx |xxxxxxxxxxxxx |            0 |            0 |            0 |            0 |xxxxxxxxxxxxx |xxxxxxxxxxxxx |xxxxxxxxxxxxx |            0 |            0 |            0 |            0 |xxxxxxxxxxxxx |xxxxxxxxxxxxx |xxxxxxxxxxxxx |            0 |            0 |            0 |            0 |xxxxxxxxxxxxx |xxxxxxxxxxxxx |xxxxxxxxxxxxx |            0 |            0 |            0 |            0 |xxxxxxxxxxxxx |xxxxxxxxxxxxx |xxxxxxxxxxxxx |            0 |            0 |            0 |            0 |
bpred_2lev.jr_non_ras_seen.PP        xxxxxxxxxxxxx |xxxxxxxxxxxxx |xxxxxxxxxxxxx |            0 |            0 |            0 |            0 |xxxxxxxxxxxxx |xxxxxxxxxxxxx |xxxxxxxxxxxxx |            0 |            0 |            0 |            0 |xxxxxxxxxxxxx |xxxxxxxxxxxxx |xxxxxxxxxxxxx |            0 |            0 |            0 |            0 |xxxxxxxxxxxxx |xxxxxxxxxxxxx |xxxxxxxxxxxxx |            0 |            0 |            0 |            0 |xxxxxxxxxxxxx |xxxxxxxxxxxxx |xxxxxxxxxxxxx |            0 |            0 |            0 |            0 |
bpred_2lev.bpred_addr_rate           xxxxxxxxxxxxx |xxxxxxxxxxxxx |xxxxxxxxxxxxx |       0.8544 |       0.8519 |       0.8520 |       0.8530 |xxxxxxxxxxxxx |xxxxxxxxxxxxx |xxxxxxxxxxxxx |       0.8546 |       0.8533 |       0.8534 |       0.8544 |xxxxxxxxxxxxx |xxxxxxxxxxxxx |xxxxxxxxxxxxx |       0.8543 |       0.8539 |       0.8540 |       0.8549 |xxxxxxxxxxxxx |xxxxxxxxxxxxx |xxxxxxxxxxxxx |       0.8554 |       0.8552 |       0.8553 |       0.8562 |xxxxxxxxxxxxx |xxxxxxxxxxxxx |xxxxxxxxxxxxx |       0.8560 |       0.8561 |       0.8562 |       0.8572 |
bpred_2lev.bpred_dir_rate            xxxxxxxxxxxxx |xxxxxxxxxxxxx |xxxxxxxxxxxxx |       0.8544 |       0.8519 |       0.8520 |       0.8530 |xxxxxxxxxxxxx |xxxxxxxxxxxxx |xxxxxxxxxxxxx |       0.8546 |       0.8533 |       0.8534 |       0.8544 |xxxxxxxxxxxxx |xxxxxxxxxxxxx |xxxxxxxxxxxxx |       0.8543 |       0.8539 |       0.8540 |       0.8549 |xxxxxxxxxxxxx |xxxxxxxxxxxxx |xxxxxxxxxxxxx |       0.8554 |       0.8552 |       0.8553 |       0.8562 |xxxxxxxxxxxxx |xxxxxxxxxxxxx |xxxxxxxxxxxxx |       0.8560 |       0.8561 |       0.8562 |       0.8572 |
bpred_2lev.bpred_jr_rate             xxxxxxxxxxxxx |xxxxxxxxxxxxx |xxxxxxxxxxxxx |       0.9828 |       0.9828 |       0.9828 |       0.9828 |xxxxxxxxxxxxx |xxxxxxxxxxxxx |xxxxxxxxxxxxx |       0.9828 |       0.9828 |       0.9828 |       0.9828 |xxxxxxxxxxxxx |xxxxxxxxxxxxx |xxxxxxxxxxxxx |       0.9828 |       0.9828 |       0.9828 |       0.9828 |xxxxxxxxxxxxx |xxxxxxxxxxxxx |xxxxxxxxxxxxx |       0.9828 |       0.9828 |       0.9828 |       0.9828 |xxxxxxxxxxxxx |xxxxxxxxxxxxx |xxxxxxxxxxxxx |       0.9828 |       0.9828 |       0.9828 |       0.9828 |
bpred_2lev.bpred_jr_non_ras_rate.PP  xxxxxxxxxxxxx |xxxxxxxxxxxxx |xxxxxxxxxxxxx |      <error: |      <error: |      <error: |      <error: |xxxxxxxxxxxxx |xxxxxxxxxxxxx |xxxxxxxxxxxxx |      <error: |      <error: |      <error: |      <error: |xxxxxxxxxxxxx |xxxxxxxxxxxxx |xxxxxxxxxxxxx |      <error: |      <error: |      <error: |      <error: |xxxxxxxxxxxxx |xxxxxxxxxxxxx |xxxxxxxxxxxxx |      <error: |      <error: |      <error: |      <error: |xxxxxxxxxxxxx |xxxxxxxxxxxxx |xxxxxxxxxxxxx |      <error: |      <error: |      <error: |      <error: |
bpred_2lev.retstack_pushes           xxxxxxxxxxxxx |xxxxxxxxxxxxx |xxxxxxxxxxxxx |           60 |           60 |           60 |           60 |xxxxxxxxxxxxx |xxxxxxxxxxxxx |xxxxxxxxxxxxx |           60 |           60 |           60 |           60 |xxxxxxxxxxxxx |xxxxxxxxxxxxx |xxxxxxxxxxxxx |           60 |           60 |           60 |           60 |xxxxxxxxxxxxx |xxxxxxxxxxxxx |xxxxxxxxxxxxx |           60 |           60 |           60 |           60 |xxxxxxxxxxxxx |xxxxxxxxxxxxx |xxxxxxxxxxxxx |           60 |           60 |           60 |           60 |
bpred_2lev.retstack_pops             xxxxxxxxxxxxx |xxxxxxxxxxxxx |xxxxxxxxxxxxx |           58 |           58 |           58 |           58 |xxxxxxxxxxxxx |xxxxxxxxxxxxx |xxxxxxxxxxxxx |           58 |           58 |           58 |           58 |xxxxxxxxxxxxx |xxxxxxxxxxxxx |xxxxxxxxxxxxx |           58 |           58 |           58 |           58 |xxxxxxxxxxxxx |xxxxxxxxxxxxx |xxxxxxxxxxxxx |           58 |           58 |           58 |           58 |xxxxxxxxxxxxx |xxxxxxxxxxxxx |xxxxxxxxxxxxx |           58 |           58 |           58 |           58 |
bpred_2lev.used_ras.PP               xxxxxxxxxxxxx |xxxxxxxxxxxxx |xxxxxxxxxxxxx |           58 |           58 |           58 |           58 |xxxxxxxxxxxxx |xxxxxxxxxxxxx |xxxxxxxxxxxxx |           58 |           58 |           58 |           58 |xxxxxxxxxxxxx |xxxxxxxxxxxxx |xxxxxxxxxxxxx |           58 |           58 |           58 |           58 |xxxxxxxxxxxxx |xxxxxxxxxxxxx |xxxxxxxxxxxxx |           58 |           58 |           58 |           58 |xxxxxxxxxxxxx |xxxxxxxxxxxxx |xxxxxxxxxxxxx |           58 |           58 |           58 |           58 |
bpred_2lev.ras_hits.PP               xxxxxxxxxxxxx |xxxxxxxxxxxxx |xxxxxxxxxxxxx |           57 |           57 |           57 |           57 |xxxxxxxxxxxxx |xxxxxxxxxxxxx |xxxxxxxxxxxxx |           57 |           57 |           57 |           57 |xxxxxxxxxxxxx |xxxxxxxxxxxxx |xxxxxxxxxxxxx |           57 |           57 |           57 |           57 |xxxxxxxxxxxxx |xxxxxxxxxxxxx |xxxxxxxxxxxxx |           57 |           57 |           57 |           57 |xxxxxxxxxxxxx |xxxxxxxxxxxxx |xxxxxxxxxxxxx |           57 |           57 |           57 |           57 |
bpred_2lev.ras_rate.PP               xxxxxxxxxxxxx |xxxxxxxxxxxxx |xxxxxxxxxxxxx |       0.9828 |       0.9828 |       0.9828 |       0.9828 |xxxxxxxxxxxxx |xxxxxxxxxxxxx |xxxxxxxxxxxxx |       0.9828 |       0.9828 |       0.9828 |       0.9828 |xxxxxxxxxxxxx |xxxxxxxxxxxxx |xxxxxxxxxxxxx |       0.9828 |       0.9828 |       0.9828 |       0.9828 |xxxxxxxxxxxxx |xxxxxxxxxxxxx |xxxxxxxxxxxxx |       0.9828 |       0.9828 |       0.9828 |       0.9828 |xxxxxxxxxxxxx |xxxxxxxxxxxxx |xxxxxxxxxxxxx |       0.9828 |       0.9828 |       0.9828 |       0.9828 |

Command list: 
	sslittle-na-sstrix-gcc -Wall -O3 -funroll-loops -finline-functions  -DRANDOM_SIZE=4096 -DOFFSET=5 -DSORT=on2_bubblesort sorts/on2_bubblesort1763145595.c simpleMain.c -o on2_bubblesort16268928
	sim-cache -cache:dl1 dl1:256:32:1:l -cache:dl2 dl2:131072:32:1:l -cache:il1 il1:256:32:1:l -cache:il2 dl2 on2_bubblesort16268928
	sim-cache -cache:dl1 dl1:256:32:1:l -cache:dl2 dl2:65536:32:1:l -cache:il1 il1:256:32:1:l -cache:il2 dl2 on2_bubblesort16268928
	sim-cache -cache:dl1 dl1:1:32:256:l -cache:dl2 dl2:1:32:131072:l -cache:il1 il1:1:32:256:l -cache:il2 dl2 on2_bubblesort16268928
	sim-cache -cache:dl1 dl1:1:32:256:l -cache:dl2 dl2:1:32:65536:l -cache:il1 il1:1:32:256:l -cache:il2 dl2 on2_bubblesort16268928
	sim-bpred -bpred bimod -bpred:bimod 512 on2_bubblesort16268928
	sim-bpred -bpred bimod -bpred:bimod 1024 on2_bubblesort16268928
	sim-bpred -bpred bimod -bpred:bimod 2048 on2_bubblesort16268928
	sim-bpred -bpred 2lev -bpred:2lev 1 512 10 1 on2_bubblesort16268928
	sim-bpred -bpred 2lev -bpred:2lev 1 1024 10 1 on2_bubblesort16268928
	sim-bpred -bpred 2lev -bpred:2lev 1 2048 10 1 on2_bubblesort16268928
	sim-bpred -bpred 2lev -bpred:2lev 1 4096 10 1 on2_bubblesort16268928
	sslittle-na-sstrix-gcc -Wall -O3 -funroll-loops -finline-functions  -DRANDOM_SIZE=8192 -DOFFSET=5 -DSORT=on2_bubblesort sorts/on2_bubblesort1763145595.c simpleMain.c -o on2_bubblesort16268928
	sim-cache -cache:dl1 dl1:256:32:1:l -cache:dl2 dl2:131072:32:1:l -cache:il1 il1:256:32:1:l -cache:il2 dl2 on2_bubblesort16268928
	sim-cache -cache:dl1 dl1:256:32:1:l -cache:dl2 dl2:65536:32:1:l -cache:il1 il1:256:32:1:l -cache:il2 dl2 on2_bubblesort16268928
	sim-cache -cache:dl1 dl1:1:32:256:l -cache:dl2 dl2:1:32:131072:l -cache:il1 il1:1:32:256:l -cache:il2 dl2 on2_bubblesort16268928
	sim-cache -cache:dl1 dl1:1:32:256:l -cache:dl2 dl2:1:32:65536:l -cache:il1 il1:1:32:256:l -cache:il2 dl2 on2_bubblesort16268928
	sim-bpred -bpred bimod -bpred:bimod 512 on2_bubblesort16268928
	sim-bpred -bpred bimod -bpred:bimod 1024 on2_bubblesort16268928
	sim-bpred -bpred bimod -bpred:bimod 2048 on2_bubblesort16268928
	sim-bpred -bpred 2lev -bpred:2lev 1 512 10 1 on2_bubblesort16268928
	sim-bpred -bpred 2lev -bpred:2lev 1 1024 10 1 on2_bubblesort16268928
	sim-bpred -bpred 2lev -bpred:2lev 1 2048 10 1 on2_bubblesort16268928
	sim-bpred -bpred 2lev -bpred:2lev 1 4096 10 1 on2_bubblesort16268928
	sslittle-na-sstrix-gcc -Wall -O3 -funroll-loops -finline-functions  -DRANDOM_SIZE=16384 -DOFFSET=5 -DSORT=on2_bubblesort sorts/on2_bubblesort1763145595.c simpleMain.c -o on2_bubblesort16268928
	sim-cache -cache:dl1 dl1:256:32:1:l -cache:dl2 dl2:131072:32:1:l -cache:il1 il1:256:32:1:l -cache:il2 dl2 on2_bubblesort16268928
	sim-cache -cache:dl1 dl1:256:32:1:l -cache:dl2 dl2:65536:32:1:l -cache:il1 il1:256:32:1:l -cache:il2 dl2 on2_bubblesort16268928
	sim-cache -cache:dl1 dl1:1:32:256:l -cache:dl2 dl2:1:32:131072:l -cache:il1 il1:1:32:256:l -cache:il2 dl2 on2_bubblesort16268928
	sim-cache -cache:dl1 dl1:1:32:256:l -cache:dl2 dl2:1:32:65536:l -cache:il1 il1:1:32:256:l -cache:il2 dl2 on2_bubblesort16268928
	sim-bpred -bpred bimod -bpred:bimod 512 on2_bubblesort16268928
	sim-bpred -bpred bimod -bpred:bimod 1024 on2_bubblesort16268928
	sim-bpred -bpred bimod -bpred:bimod 2048 on2_bubblesort16268928
	sim-bpred -bpred 2lev -bpred:2lev 1 512 10 1 on2_bubblesort16268928
	sim-bpred -bpred 2lev -bpred:2lev 1 1024 10 1 on2_bubblesort16268928
	sim-bpred -bpred 2lev -bpred:2lev 1 2048 10 1 on2_bubblesort16268928
	sim-bpred -bpred 2lev -bpred:2lev 1 4096 10 1 on2_bubblesort16268928
	sslittle-na-sstrix-gcc -Wall -O3 -funroll-loops -finline-functions  -DRANDOM_SIZE=32768 -DOFFSET=5 -DSORT=on2_bubblesort sorts/on2_bubblesort1763145595.c simpleMain.c -o on2_bubblesort16268928
	sim-cache -cache:dl1 dl1:256:32:1:l -cache:dl2 dl2:131072:32:1:l -cache:il1 il1:256:32:1:l -cache:il2 dl2 on2_bubblesort16268928
	sim-cache -cache:dl1 dl1:256:32:1:l -cache:dl2 dl2:65536:32:1:l -cache:il1 il1:256:32:1:l -cache:il2 dl2 on2_bubblesort16268928
	sim-cache -cache:dl1 dl1:1:32:256:l -cache:dl2 dl2:1:32:131072:l -cache:il1 il1:1:32:256:l -cache:il2 dl2 on2_bubblesort16268928
	sim-cache -cache:dl1 dl1:1:32:256:l -cache:dl2 dl2:1:32:65536:l -cache:il1 il1:1:32:256:l -cache:il2 dl2 on2_bubblesort16268928
	sim-bpred -bpred bimod -bpred:bimod 512 on2_bubblesort16268928
	sim-bpred -bpred bimod -bpred:bimod 1024 on2_bubblesort16268928
	sim-bpred -bpred bimod -bpred:bimod 2048 on2_bubblesort16268928
	sim-bpred -bpred 2lev -bpred:2lev 1 512 10 1 on2_bubblesort16268928
	sim-bpred -bpred 2lev -bpred:2lev 1 1024 10 1 on2_bubblesort16268928
	sim-bpred -bpred 2lev -bpred:2lev 1 2048 10 1 on2_bubblesort16268928
	sim-bpred -bpred 2lev -bpred:2lev 1 4096 10 1 on2_bubblesort16268928
	sslittle-na-sstrix-gcc -Wall -O3 -funroll-loops -finline-functions  -DRANDOM_SIZE=65536 -DOFFSET=5 -DSORT=on2_bubblesort sorts/on2_bubblesort1763145595.c simpleMain.c -o on2_bubblesort16268928
	sim-cache -cache:dl1 dl1:256:32:1:l -cache:dl2 dl2:131072:32:1:l -cache:il1 il1:256:32:1:l -cache:il2 dl2 on2_bubblesort16268928
	sim-cache -cache:dl1 dl1:256:32:1:l -cache:dl2 dl2:65536:32:1:l -cache:il1 il1:256:32:1:l -cache:il2 dl2 on2_bubblesort16268928
	sim-cache -cache:dl1 dl1:1:32:256:l -cache:dl2 dl2:1:32:131072:l -cache:il1 il1:1:32:256:l -cache:il2 dl2 on2_bubblesort16268928
	sim-cache -cache:dl1 dl1:1:32:256:l -cache:dl2 dl2:1:32:65536:l -cache:il1 il1:1:32:256:l -cache:il2 dl2 on2_bubblesort16268928
	sim-bpred -bpred bimod -bpred:bimod 512 on2_bubblesort16268928
	sim-bpred -bpred bimod -bpred:bimod 1024 on2_bubblesort16268928
	sim-bpred -bpred bimod -bpred:bimod 2048 on2_bubblesort16268928
	sim-bpred -bpred 2lev -bpred:2lev 1 512 10 1 on2_bubblesort16268928
	sim-bpred -bpred 2lev -bpred:2lev 1 1024 10 1 on2_bubblesort16268928
	sim-bpred -bpred 2lev -bpred:2lev 1 2048 10 1 on2_bubblesort16268928
	sim-bpred -bpred 2lev -bpred:2lev 1 4096 10 1 on2_bubblesort16268928
