Sun Jul 10 02:01:52 2005
Run as: "./do_simple -c random.org4 -o 4 -M 65536 on2_bubblesort"
-------------------------------------------------------------------------------------------------
sim-cache                                     4096 |         4096 |         4096 |         4096 |         8192 |         8192 |         8192 |         8192 |        16384 |        16384 |        16384 |        16384 |        32768 |        32768 |        32768 |        32768 |        65536 |        65536 |        65536 |        65536 |
-cache:dl1 dl1:256:32:1:l -cache:dl2 dl2:131072:32:1:l -cache:il1 il1:256:32:1:l -cache:il2 dl2
-cache:dl1 dl1:256:32:1:l -cache:dl2 dl2:65536:32:1:l -cache:il1 il1:256:32:1:l -cache:il2 dl2
-cache:dl1 dl1:1:32:256:l -cache:dl2 dl2:1:32:131072:l -cache:il1 il1:1:32:256:l -cache:il2 dl2
-cache:dl1 dl1:1:32:256:l -cache:dl2 dl2:1:32:65536:l -cache:il1 il1:1:32:256:l -cache:il2 dl2
-------------------------------------------------------------------------------------------------
sim_num_insn                              71527528 |     71527528 |     71527528 |     71527528 |    285570708 |    285570708 |    285570708 |    285570708 |   1141251538 |   1141251538 |   1141251538 |   1141251538 |   4566424239 |   4566424239 |   4566424239 |   4566424239 |  18267205865 |  18267205865 |  18267205865 |  18267205865 |
sim_num_refs                              25292477 |     25292477 |     25292477 |     25292477 |    100856173 |    100856173 |    100856173 |    100856173 |    402837013 |    402837013 |    402837013 |    402837013 |   1612453989 |   1612453989 |   1612453989 |   1612453989 |   6451176513 |   6451176513 |   6451176513 |   6451176513 |
sim_elapsed_time                                21 |           20 |           27 |           25 |           82 |           82 |           91 |           85 |          328 |          330 |          341 |          332 |         1311 |         1319 |         1361 |         1313 |         5321 |         5360 |         5360 |         5223 |
sim_inst_rate                         3406072.7619 | 3576376.4000 | 2649167.7037 | 2861101.1200 | 3482569.6098 | 3482569.6098 | 3138139.6484 | 3359655.3882 | 3479425.4207 | 3458337.9939 | 3346778.7038 | 3437504.6325 | 3483161.1281 | 3462035.0561 | 3355197.8244 | 3477855.4752 | 3433040.0047 | 3408060.7957 | 3408060.7957 | 3497454.6937 |
il1.accesses                              71527528 |     71527528 |     71527528 |     71527528 |    285570708 |    285570708 |    285570708 |    285570708 |   1141251538 |   1141251538 |   1141251538 |   1141251538 |   4566424239 |   4566424239 |   4566424239 |   4566424239 |  18267205865 |  18267205865 |  18267205865 |  18267205865 |
il1.hits                                  71527164 |     71527164 |     71527223 |     71527223 |    285570342 |    285570342 |    285570401 |    285570401 |   1141251181 |   1141251181 |   1141251237 |   1141251237 |   4566423872 |   4566423872 |   4566423931 |   4566423931 |  18267205498 |  18267205498 |  18267205557 |  18267205557 |
il1.misses                                     364 |          364 |          305 |          305 |          366 |          366 |          307 |          307 |          357 |          357 |          301 |          301 |          367 |          367 |          308 |          308 |          367 |          367 |          308 |          308 |
il1.replacements                               176 |          176 |           49 |           49 |          177 |          177 |           51 |           51 |          172 |          172 |           45 |           45 |          178 |          178 |           52 |           52 |          178 |          178 |           52 |           52 |
il1.writebacks                                   0 |            0 |            0 |            0 |            0 |            0 |            0 |            0 |            0 |            0 |            0 |            0 |            0 |            0 |            0 |            0 |            0 |            0 |            0 |            0 |
il1.invalidations                                0 |            0 |            0 |            0 |            0 |            0 |            0 |            0 |            0 |            0 |            0 |            0 |            0 |            0 |            0 |            0 |            0 |            0 |            0 |            0 |
il1.miss_rate                               0.0000 |       0.0000 |       0.0000 |       0.0000 |       0.0000 |       0.0000 |       0.0000 |       0.0000 |       0.0000 |       0.0000 |       0.0000 |       0.0000 |       0.0000 |       0.0000 |       0.0000 |       0.0000 |       0.0000 |       0.0000 |       0.0000 |       0.0000 |
il1.repl_rate                               0.0000 |       0.0000 |       0.0000 |       0.0000 |       0.0000 |       0.0000 |       0.0000 |       0.0000 |       0.0000 |       0.0000 |       0.0000 |       0.0000 |       0.0000 |       0.0000 |       0.0000 |       0.0000 |       0.0000 |       0.0000 |       0.0000 |       0.0000 |
il1.wb_rate                                 0.0000 |       0.0000 |       0.0000 |       0.0000 |       0.0000 |       0.0000 |       0.0000 |       0.0000 |       0.0000 |       0.0000 |       0.0000 |       0.0000 |       0.0000 |       0.0000 |       0.0000 |       0.0000 |       0.0000 |       0.0000 |       0.0000 |       0.0000 |
il1.inv_rate                                0.0000 |       0.0000 |       0.0000 |       0.0000 |       0.0000 |       0.0000 |       0.0000 |       0.0000 |       0.0000 |       0.0000 |       0.0000 |       0.0000 |       0.0000 |       0.0000 |       0.0000 |       0.0000 |       0.0000 |       0.0000 |       0.0000 |       0.0000 |
dl1.accesses                              25308943 |     25308943 |     25308943 |     25308943 |    100889023 |    100889023 |    100889023 |    100889023 |    402902631 |    402902631 |    402902631 |    402902631 |   1612585143 |   1612585143 |   1612585143 |   1612585143 |   6451438739 |   6451438739 |   6451438739 |   6451438739 |
dl1.hits                                  24780629 |     24780629 |     24519510 |     24519510 |     97211397 |     97211397 |     96950278 |     96950278 |    386634925 |    386634925 |    386373806 |    386373806 |   1545971453 |   1545971453 |   1545710334 |   1545710334 |   6183469785 |   6183469785 |   6183208665 |   6183208665 |
dl1.misses                                  528314 |       528314 |       789433 |       789433 |      3677626 |      3677626 |      3938745 |      3938745 |     16267706 |     16267706 |     16528825 |     16528825 |     66613690 |     66613690 |     66874809 |     66874809 |    267968954 |    267968954 |    268230074 |    268230074 |
dl1.replacements                            528058 |       528058 |       789177 |       789177 |      3677370 |      3677370 |      3938489 |      3938489 |     16267450 |     16267450 |     16528569 |     16528569 |     66613434 |     66613434 |     66874553 |     66874553 |    267968698 |    267968698 |    268229818 |    268229818 |
dl1.writebacks                              502811 |       502811 |       757012 |       757012 |      3450025 |      3450025 |      3666114 |      3666114 |     14926834 |     14926834 |     15076250 |     15076250 |     60433730 |     60433730 |     60518648 |     60518648 |    241931118 |    241931118 |    241974769 |    241974769 |
dl1.invalidations                                0 |            0 |            0 |            0 |            0 |            0 |            0 |            0 |            0 |            0 |            0 |            0 |            0 |            0 |            0 |            0 |            0 |            0 |            0 |            0 |
dl1.miss_rate                               0.0209 |       0.0209 |       0.0312 |       0.0312 |       0.0365 |       0.0365 |       0.0390 |       0.0390 |       0.0404 |       0.0404 |       0.0410 |       0.0410 |       0.0413 |       0.0413 |       0.0415 |       0.0415 |       0.0415 |       0.0415 |       0.0416 |       0.0416 |
dl1.repl_rate                               0.0209 |       0.0209 |       0.0312 |       0.0312 |       0.0364 |       0.0364 |       0.0390 |       0.0390 |       0.0404 |       0.0404 |       0.0410 |       0.0410 |       0.0413 |       0.0413 |       0.0415 |       0.0415 |       0.0415 |       0.0415 |       0.0416 |       0.0416 |
dl1.wb_rate                                 0.0199 |       0.0199 |       0.0299 |       0.0299 |       0.0342 |       0.0342 |       0.0363 |       0.0363 |       0.0370 |       0.0370 |       0.0374 |       0.0374 |       0.0375 |       0.0375 |       0.0375 |       0.0375 |       0.0375 |       0.0375 |       0.0375 |       0.0375 |
dl1.inv_rate                                0.0000 |       0.0000 |       0.0000 |       0.0000 |       0.0000 |       0.0000 |       0.0000 |       0.0000 |       0.0000 |       0.0000 |       0.0000 |       0.0000 |       0.0000 |       0.0000 |       0.0000 |       0.0000 |       0.0000 |       0.0000 |       0.0000 |       0.0000 |
dl2.accesses                               1031489 |      1031489 |      1546750 |      1546750 |      7128017 |      7128017 |      7605166 |      7605166 |     31194897 |     31194897 |     31605376 |     31605376 |    127047787 |    127047787 |    127393765 |    127393765 |    509900439 |    509900439 |    510205151 |    510205151 |
dl2.hits                                   1030252 |      1030252 |      1545521 |      1545521 |      7126265 |      7126265 |      7603423 |      7603423 |     31192126 |     31192126 |     31602615 |     31602615 |    127042963 |    127042963 |    127388949 |    127388949 |    509891519 |    509891519 |    510196239 |    510196239 |
dl2.misses                                    1237 |         1237 |         1229 |         1229 |         1752 |         1752 |         1743 |         1743 |         2771 |         2771 |         2761 |         2761 |         4824 |         4824 |         4816 |         4816 |         8920 |         8920 |         8912 |         8912 |
dl2.replacements                                67 |           67 |            0 |            0 |           68 |           68 |            0 |            0 |           69 |           69 |            0 |            0 |           67 |           67 |            0 |            0 |           67 |           67 |            0 |            0 |
dl2.writebacks                                   1 |            1 |            0 |            0 |            1 |            1 |            0 |            0 |            1 |            1 |            0 |            0 |            1 |            1 |            0 |            0 |            1 |            1 |            0 |            0 |
dl2.invalidations                                0 |            0 |            0 |            0 |            0 |            0 |            0 |            0 |            0 |            0 |            0 |            0 |            0 |            0 |            0 |            0 |            0 |            0 |            0 |            0 |
dl2.miss_rate                               0.0012 |       0.0012 |       0.0008 |       0.0008 |       0.0002 |       0.0002 |       0.0002 |       0.0002 |       0.0001 |       0.0001 |       0.0001 |       0.0001 |       0.0000 |       0.0000 |       0.0000 |       0.0000 |       0.0000 |       0.0000 |       0.0000 |       0.0000 |
dl2.repl_rate                               0.0001 |       0.0001 |       0.0000 |       0.0000 |       0.0000 |       0.0000 |       0.0000 |       0.0000 |       0.0000 |       0.0000 |       0.0000 |       0.0000 |       0.0000 |       0.0000 |       0.0000 |       0.0000 |       0.0000 |       0.0000 |       0.0000 |       0.0000 |
dl2.wb_rate                                 0.0000 |       0.0000 |       0.0000 |       0.0000 |       0.0000 |       0.0000 |       0.0000 |       0.0000 |       0.0000 |       0.0000 |       0.0000 |       0.0000 |       0.0000 |       0.0000 |       0.0000 |       0.0000 |       0.0000 |       0.0000 |       0.0000 |       0.0000 |
dl2.inv_rate                                0.0000 |       0.0000 |       0.0000 |       0.0000 |       0.0000 |       0.0000 |       0.0000 |       0.0000 |       0.0000 |       0.0000 |       0.0000 |       0.0000 |       0.0000 |       0.0000 |       0.0000 |       0.0000 |       0.0000 |       0.0000 |       0.0000 |       0.0000 |
itlb.accesses                             71527528 |     71527528 |     71527528 |     71527528 |    285570708 |    285570708 |    285570708 |    285570708 |   1141251538 |   1141251538 |   1141251538 |   1141251538 |   4566424239 |   4566424239 |   4566424239 |   4566424239 |  18267205865 |  18267205865 |  18267205865 |  18267205865 |
itlb.hits                                 71527519 |     71527519 |     71527519 |     71527519 |    285570699 |    285570699 |    285570699 |    285570699 |   1141251529 |   1141251529 |   1141251529 |   1141251529 |   4566424230 |   4566424230 |   4566424230 |   4566424230 |  18267205856 |  18267205856 |  18267205856 |  18267205856 |
itlb.misses                                      9 |            9 |            9 |            9 |            9 |            9 |            9 |            9 |            9 |            9 |            9 |            9 |            9 |            9 |            9 |            9 |            9 |            9 |            9 |            9 |
itlb.replacements                                0 |            0 |            0 |            0 |            0 |            0 |            0 |            0 |            0 |            0 |            0 |            0 |            0 |            0 |            0 |            0 |            0 |            0 |            0 |            0 |
itlb.writebacks                                  0 |            0 |            0 |            0 |            0 |            0 |            0 |            0 |            0 |            0 |            0 |            0 |            0 |            0 |            0 |            0 |            0 |            0 |            0 |            0 |
itlb.invalidations                               0 |            0 |            0 |            0 |            0 |            0 |            0 |            0 |            0 |            0 |            0 |            0 |            0 |            0 |            0 |            0 |            0 |            0 |            0 |            0 |
itlb.miss_rate                              0.0000 |       0.0000 |       0.0000 |       0.0000 |       0.0000 |       0.0000 |       0.0000 |       0.0000 |       0.0000 |       0.0000 |       0.0000 |       0.0000 |       0.0000 |       0.0000 |       0.0000 |       0.0000 |       0.0000 |       0.0000 |       0.0000 |       0.0000 |
itlb.repl_rate                              0.0000 |       0.0000 |       0.0000 |       0.0000 |       0.0000 |       0.0000 |       0.0000 |       0.0000 |       0.0000 |       0.0000 |       0.0000 |       0.0000 |       0.0000 |       0.0000 |       0.0000 |       0.0000 |       0.0000 |       0.0000 |       0.0000 |       0.0000 |
itlb.wb_rate                                0.0000 |       0.0000 |       0.0000 |       0.0000 |       0.0000 |       0.0000 |       0.0000 |       0.0000 |       0.0000 |       0.0000 |       0.0000 |       0.0000 |       0.0000 |       0.0000 |       0.0000 |       0.0000 |       0.0000 |       0.0000 |       0.0000 |       0.0000 |
itlb.inv_rate                               0.0000 |       0.0000 |       0.0000 |       0.0000 |       0.0000 |       0.0000 |       0.0000 |       0.0000 |       0.0000 |       0.0000 |       0.0000 |       0.0000 |       0.0000 |       0.0000 |       0.0000 |       0.0000 |       0.0000 |       0.0000 |       0.0000 |       0.0000 |
dtlb.accesses                             25308943 |     25308943 |     25308943 |     25308943 |    100889023 |    100889023 |    100889023 |    100889023 |    402902631 |    402902631 |    402902631 |    402902631 |   1612585143 |   1612585143 |   1612585143 |   1612585143 |   6451438739 |   6451438739 |   6451438739 |   6451438739 |
dtlb.hits                                 25308932 |     25308932 |     25308932 |     25308932 |    100889008 |    100889008 |    100889008 |    100889008 |    402902608 |    402902608 |    402902608 |    402902608 |   1612585104 |   1612585104 |   1612585104 |   1612585104 |   6451438668 |   6451438668 |   6451438668 |   6451438668 |
dtlb.misses                                     11 |           11 |           11 |           11 |           15 |           15 |           15 |           15 |           23 |           23 |           23 |           23 |           39 |           39 |           39 |           39 |           71 |           71 |           71 |           71 |
dtlb.replacements                                0 |            0 |            0 |            0 |            0 |            0 |            0 |            0 |            0 |            0 |            0 |            0 |            0 |            0 |            0 |            0 |            0 |            0 |            0 |            0 |
dtlb.writebacks                                  0 |            0 |            0 |            0 |            0 |            0 |            0 |            0 |            0 |            0 |            0 |            0 |            0 |            0 |            0 |            0 |            0 |            0 |            0 |            0 |
dtlb.invalidations                               0 |            0 |            0 |            0 |            0 |            0 |            0 |            0 |            0 |            0 |            0 |            0 |            0 |            0 |            0 |            0 |            0 |            0 |            0 |            0 |
dtlb.miss_rate                              0.0000 |       0.0000 |       0.0000 |       0.0000 |       0.0000 |       0.0000 |       0.0000 |       0.0000 |       0.0000 |       0.0000 |       0.0000 |       0.0000 |       0.0000 |       0.0000 |       0.0000 |       0.0000 |       0.0000 |       0.0000 |       0.0000 |       0.0000 |
dtlb.repl_rate                              0.0000 |       0.0000 |       0.0000 |       0.0000 |       0.0000 |       0.0000 |       0.0000 |       0.0000 |       0.0000 |       0.0000 |       0.0000 |       0.0000 |       0.0000 |       0.0000 |       0.0000 |       0.0000 |       0.0000 |       0.0000 |       0.0000 |       0.0000 |
dtlb.wb_rate                                0.0000 |       0.0000 |       0.0000 |       0.0000 |       0.0000 |       0.0000 |       0.0000 |       0.0000 |       0.0000 |       0.0000 |       0.0000 |       0.0000 |       0.0000 |       0.0000 |       0.0000 |       0.0000 |       0.0000 |       0.0000 |       0.0000 |       0.0000 |
dtlb.inv_rate                               0.0000 |       0.0000 |       0.0000 |       0.0000 |       0.0000 |       0.0000 |       0.0000 |       0.0000 |       0.0000 |       0.0000 |       0.0000 |       0.0000 |       0.0000 |       0.0000 |       0.0000 |       0.0000 |       0.0000 |       0.0000 |       0.0000 |       0.0000 |
ld_text_base                            0x00400000 |   0x00400000 |   0x00400000 |   0x00400000 |   0x00400000 |   0x00400000 |   0x00400000 |   0x00400000 |   0x00400000 |   0x00400000 |   0x00400000 |   0x00400000 |   0x00400000 |   0x00400000 |   0x00400000 |   0x00400000 |   0x00400000 |   0x00400000 |   0x00400000 |   0x00400000 |
ld_text_size                                 70896 |        70896 |        70896 |        70896 |        70928 |        70928 |        70928 |        70928 |        70944 |        70944 |        70944 |        70944 |        70960 |        70960 |        70960 |        70960 |        70960 |        70960 |        70960 |        70960 |
ld_data_base                            0x10000000 |   0x10000000 |   0x10000000 |   0x10000000 |   0x10000000 |   0x10000000 |   0x10000000 |   0x10000000 |   0x10000000 |   0x10000000 |   0x10000000 |   0x10000000 |   0x10000000 |   0x10000000 |   0x10000000 |   0x10000000 |   0x10000000 |   0x10000000 |   0x10000000 |   0x10000000 |
ld_data_size                                  8192 |         8192 |         8192 |         8192 |         8192 |         8192 |         8192 |         8192 |         8192 |         8192 |         8192 |         8192 |         8192 |         8192 |         8192 |         8192 |         8192 |         8192 |         8192 |         8192 |
ld_stack_base                           0x7fffc000 |   0x7fffc000 |   0x7fffc000 |   0x7fffc000 |   0x7fffc000 |   0x7fffc000 |   0x7fffc000 |   0x7fffc000 |   0x7fffc000 |   0x7fffc000 |   0x7fffc000 |   0x7fffc000 |   0x7fffc000 |   0x7fffc000 |   0x7fffc000 |   0x7fffc000 |   0x7fffc000 |   0x7fffc000 |   0x7fffc000 |   0x7fffc000 |
ld_stack_size                                16384 |        16384 |        16384 |        16384 |        16384 |        16384 |        16384 |        16384 |        16384 |        16384 |        16384 |        16384 |        16384 |        16384 |        16384 |        16384 |        16384 |        16384 |        16384 |        16384 |
ld_prog_entry                           0x00400140 |   0x00400140 |   0x00400140 |   0x00400140 |   0x00400140 |   0x00400140 |   0x00400140 |   0x00400140 |   0x00400140 |   0x00400140 |   0x00400140 |   0x00400140 |   0x00400140 |   0x00400140 |   0x00400140 |   0x00400140 |   0x00400140 |   0x00400140 |   0x00400140 |   0x00400140 |
ld_environ_base                         0x7fff8000 |   0x7fff8000 |   0x7fff8000 |   0x7fff8000 |   0x7fff8000 |   0x7fff8000 |   0x7fff8000 |   0x7fff8000 |   0x7fff8000 |   0x7fff8000 |   0x7fff8000 |   0x7fff8000 |   0x7fff8000 |   0x7fff8000 |   0x7fff8000 |   0x7fff8000 |   0x7fff8000 |   0x7fff8000 |   0x7fff8000 |   0x7fff8000 |
ld_target_big_endian                             0 |            0 |            0 |            0 |            0 |            0 |            0 |            0 |            0 |            0 |            0 |            0 |            0 |            0 |            0 |            0 |            0 |            0 |            0 |            0 |
mem.page_count                                  29 |           29 |           29 |           29 |           33 |           33 |           33 |           33 |           41 |           41 |           41 |           41 |           57 |           57 |           57 |           57 |           89 |           89 |           89 |           89 |
mem.page_mem                                  116k |         116k |         116k |         116k |         132k |         132k |         132k |         132k |         164k |         164k |         164k |         164k |         228k |         228k |         228k |         228k |         356k |         356k |         356k |         356k |
mem.ptab_misses                                 29 |           29 |           29 |           29 |           33 |           33 |           33 |           33 |           41 |           41 |           41 |           41 |           57 |           57 |           57 |           57 |           89 |           89 |           89 |           89 |
mem.ptab_accesses                        337167964 |    337167964 |    337167964 |    337167964 |   1344501036 |   1344501036 |   1344501036 |   1344501036 |   5371251668 |   5371251668 |   5371251668 |   5371251668 |  21491307592 |  21491307592 |  21491307592 |  21491307592 |  85972141288 |  85972141288 |  85972141288 |  85972141288 |
mem.ptab_miss_rate                          0.0000 |       0.0000 |       0.0000 |       0.0000 |       0.0000 |       0.0000 |       0.0000 |       0.0000 |       0.0000 |       0.0000 |       0.0000 |       0.0000 |       0.0000 |       0.0000 |       0.0000 |       0.0000 |       0.0000 |       0.0000 |       0.0000 |       0.0000 |
-------------------------------------------------------------------------------------------------
sim-bpred                                     4096 |         4096 |         4096 |         4096 |         4096 |         4096 |         4096 |         8192 |         8192 |         8192 |         8192 |         8192 |         8192 |         8192 |        16384 |        16384 |        16384 |        16384 |        16384 |        16384 |        16384 |        32768 |        32768 |        32768 |        32768 |        32768 |        32768 |        32768 |        65536 |        65536 |        65536 |        65536 |        65536 |        65536 |        65536 |
-bpred bimod -bpred:bimod 512
-bpred bimod -bpred:bimod 1024
-bpred bimod -bpred:bimod 2048
-bpred 2lev -bpred:2lev 1 512 10 1
-bpred 2lev -bpred:2lev 1 1024 10 1
-bpred 2lev -bpred:2lev 1 2048 10 1
-bpred 2lev -bpred:2lev 1 4096 10 1
-------------------------------------------------------------------------------------------------
sim_num_insn                              71527528 |     71527528 |     71527528 |     71527528 |     71527528 |     71527528 |     71527528 |    285570708 |    285570708 |    285570708 |    285570708 |    285570708 |    285570708 |    285570708 |   1141251538 |   1141251538 |   1141251538 |   1141251538 |   1141251538 |   1141251538 |   1141251538 |   4566424239 |   4566424239 |   4566424239 |   4566424239 |   4566424239 |   4566424239 |   4566424239 |  18267205865 |  18267205865 |  18267205865 |  18267205865 |  18267205865 |  18267205865 |  18267205865 |
sim_num_refs                              25292477 |     25292477 |     25292477 |     25292477 |     25292477 |     25292477 |     25292477 |    100856173 |    100856173 |    100856173 |    100856173 |    100856173 |    100856173 |    100856173 |    402837013 |    402837013 |    402837013 |    402837013 |    402837013 |    402837013 |    402837013 |   1612453989 |   1612453989 |   1612453989 |   1612453989 |   1612453989 |   1612453989 |   1612453989 |   6451176513 |   6451176513 |   6451176513 |   6451176513 |   6451176513 |   6451176513 |   6451176513 |
sim_elapsed_time                                10 |            9 |           10 |           10 |           10 |           10 |           10 |           39 |           39 |           39 |           40 |           39 |           40 |           40 |          155 |          157 |          158 |          163 |          160 |          159 |          159 |          629 |          619 |          637 |          652 |          652 |          643 |          651 |         2457 |         2441 |         2474 |         2496 |         2498 |         2523 |         2513 |
sim_inst_rate                         7152752.8000 | 7947503.1111 | 7152752.8000 | 7152752.8000 | 7152752.8000 | 7152752.8000 | 7152752.8000 | 7322325.8462 | 7322325.8462 | 7322325.8462 | 7139267.7000 | 7322325.8462 | 7139267.7000 | 7139267.7000 | 7362913.1484 | 7269118.0764 | 7223111.0000 | 7001543.1779 | 7132822.1125 | 7177682.6289 | 7177682.6289 | 7259815.9603 | 7377098.9321 | 7168640.8776 | 7003718.1580 | 7003718.1580 | 7101748.4277 | 7014476.5576 | 7434760.2218 | 7483492.7755 | 7383672.5404 | 7318592.0933 | 7312732.5320 | 7240271.8450 | 7269083.1138 |
sim_num_branches                          16782669 |     16782669 |     16782669 |     16782669 |     16782669 |     16782669 |     16782669 |     67119266 |     67119266 |     67119266 |     67119266 |     67119266 |     67119266 |     67119266 |    268449645 |    268449645 |    268449645 |    268449645 |    268449645 |    268449645 |    268449645 |   1073774246 |   1073774246 |   1073774246 |   1073774246 |   1073774246 |   1073774246 |   1073774246 |   4295025126 |   4295025126 |   4295025126 |   4295025126 |   4295025126 |   4295025126 |   4295025126 |
sim_IPB                                     4.2620 |       4.2620 |       4.2620 |       4.2620 |       4.2620 |       4.2620 |       4.2620 |       4.2547 |       4.2547 |       4.2547 |       4.2547 |       4.2547 |       4.2547 |       4.2547 |       4.2513 |       4.2513 |       4.2513 |       4.2513 |       4.2513 |       4.2513 |       4.2513 |       4.2527 |       4.2527 |       4.2527 |       4.2527 |       4.2527 |       4.2527 |       4.2527 |       4.2531 |       4.2531 |       4.2531 |       4.2531 |       4.2531 |       4.2531 |       4.2531 |
bpred_bimod.lookups                       16782669 |     16782669 |     16782669 |xxxxxxxxxxxxx |xxxxxxxxxxxxx |xxxxxxxxxxxxx |xxxxxxxxxxxxx |     67119266 |     67119266 |     67119266 |xxxxxxxxxxxxx |xxxxxxxxxxxxx |xxxxxxxxxxxxx |xxxxxxxxxxxxx |    268449645 |    268449645 |    268449645 |xxxxxxxxxxxxx |xxxxxxxxxxxxx |xxxxxxxxxxxxx |xxxxxxxxxxxxx |   1073774246 |   1073774246 |   1073774246 |xxxxxxxxxxxxx |xxxxxxxxxxxxx |xxxxxxxxxxxxx |xxxxxxxxxxxxx |   4295025126 |   4295025126 |   4295025126 |
bpred_bimod.updates                       16782669 |     16782669 |     16782669 |xxxxxxxxxxxxx |xxxxxxxxxxxxx |xxxxxxxxxxxxx |xxxxxxxxxxxxx |     67119266 |     67119266 |     67119266 |xxxxxxxxxxxxx |xxxxxxxxxxxxx |xxxxxxxxxxxxx |xxxxxxxxxxxxx |    268449645 |    268449645 |    268449645 |xxxxxxxxxxxxx |xxxxxxxxxxxxx |xxxxxxxxxxxxx |xxxxxxxxxxxxx |   1073774246 |   1073774246 |   1073774246 |xxxxxxxxxxxxx |xxxxxxxxxxxxx |xxxxxxxxxxxxx |xxxxxxxxxxxxx |   4295025126 |   4295025126 |   4295025126 |
bpred_bimod.addr_hits                     14428073 |     14428075 |     14428076 |xxxxxxxxxxxxx |xxxxxxxxxxxxx |xxxxxxxxxxxxx |xxxxxxxxxxxxx |     57591322 |     57591324 |     57591324 |xxxxxxxxxxxxx |xxxxxxxxxxxxx |xxxxxxxxxxxxx |xxxxxxxxxxxxx |    230421095 |    230421096 |    230421096 |xxxxxxxxxxxxx |xxxxxxxxxxxxx |xxxxxxxxxxxxx |xxxxxxxxxxxxx |    921048599 |    921048601 |    921048601 |xxxxxxxxxxxxx |xxxxxxxxxxxxx |xxxxxxxxxxxxx |xxxxxxxxxxxxx |   3683418610 |   3683418612 |   3683418612 |
bpred_bimod.dir_hits                      14428167 |     14428168 |     14428168 |xxxxxxxxxxxxx |xxxxxxxxxxxxx |xxxxxxxxxxxxx |xxxxxxxxxxxxx |     57591416 |     57591417 |     57591416 |xxxxxxxxxxxxx |xxxxxxxxxxxxx |xxxxxxxxxxxxx |xxxxxxxxxxxxx |    230421190 |    230421189 |    230421188 |xxxxxxxxxxxxx |xxxxxxxxxxxxx |xxxxxxxxxxxxx |xxxxxxxxxxxxx |    921048694 |    921048695 |    921048692 |xxxxxxxxxxxxx |xxxxxxxxxxxxx |xxxxxxxxxxxxx |xxxxxxxxxxxxx |   3683418705 |   3683418706 |   3683418703 |
bpred_bimod.misses                         2354502 |      2354501 |      2354501 |xxxxxxxxxxxxx |xxxxxxxxxxxxx |xxxxxxxxxxxxx |xxxxxxxxxxxxx |      9527850 |      9527849 |      9527850 |xxxxxxxxxxxxx |xxxxxxxxxxxxx |xxxxxxxxxxxxx |xxxxxxxxxxxxx |     38028455 |     38028456 |     38028457 |xxxxxxxxxxxxx |xxxxxxxxxxxxx |xxxxxxxxxxxxx |xxxxxxxxxxxxx |    152725552 |    152725551 |    152725554 |xxxxxxxxxxxxx |xxxxxxxxxxxxx |xxxxxxxxxxxxx |xxxxxxxxxxxxx |    611606421 |    611606420 |    611606423 |
bpred_bimod.jr_hits                             57 |           57 |           57 |xxxxxxxxxxxxx |xxxxxxxxxxxxx |xxxxxxxxxxxxx |xxxxxxxxxxxxx |           57 |           57 |           57 |xxxxxxxxxxxxx |xxxxxxxxxxxxx |xxxxxxxxxxxxx |xxxxxxxxxxxxx |           57 |           57 |           57 |xxxxxxxxxxxxx |xxxxxxxxxxxxx |xxxxxxxxxxxxx |xxxxxxxxxxxxx |           57 |           57 |           57 |xxxxxxxxxxxxx |xxxxxxxxxxxxx |xxxxxxxxxxxxx |xxxxxxxxxxxxx |           57 |           57 |           57 |
bpred_bimod.jr_seen                             58 |           58 |           58 |xxxxxxxxxxxxx |xxxxxxxxxxxxx |xxxxxxxxxxxxx |xxxxxxxxxxxxx |           58 |           58 |           58 |xxxxxxxxxxxxx |xxxxxxxxxxxxx |xxxxxxxxxxxxx |xxxxxxxxxxxxx |           58 |           58 |           58 |xxxxxxxxxxxxx |xxxxxxxxxxxxx |xxxxxxxxxxxxx |xxxxxxxxxxxxx |           58 |           58 |           58 |xxxxxxxxxxxxx |xxxxxxxxxxxxx |xxxxxxxxxxxxx |xxxxxxxxxxxxx |           58 |           58 |           58 |
bpred_bimod.jr_non_ras_hits.PP                   0 |            0 |            0 |xxxxxxxxxxxxx |xxxxxxxxxxxxx |xxxxxxxxxxxxx |xxxxxxxxxxxxx |            0 |            0 |            0 |xxxxxxxxxxxxx |xxxxxxxxxxxxx |xxxxxxxxxxxxx |xxxxxxxxxxxxx |            0 |            0 |            0 |xxxxxxxxxxxxx |xxxxxxxxxxxxx |xxxxxxxxxxxxx |xxxxxxxxxxxxx |            0 |            0 |            0 |xxxxxxxxxxxxx |xxxxxxxxxxxxx |xxxxxxxxxxxxx |xxxxxxxxxxxxx |            0 |            0 |            0 |
bpred_bimod.jr_non_ras_seen.PP                   0 |            0 |            0 |xxxxxxxxxxxxx |xxxxxxxxxxxxx |xxxxxxxxxxxxx |xxxxxxxxxxxxx |            0 |            0 |            0 |xxxxxxxxxxxxx |xxxxxxxxxxxxx |xxxxxxxxxxxxx |xxxxxxxxxxxxx |            0 |            0 |            0 |xxxxxxxxxxxxx |xxxxxxxxxxxxx |xxxxxxxxxxxxx |xxxxxxxxxxxxx |            0 |            0 |            0 |xxxxxxxxxxxxx |xxxxxxxxxxxxx |xxxxxxxxxxxxx |xxxxxxxxxxxxx |            0 |            0 |            0 |
bpred_bimod.bpred_addr_rate                 0.8597 |       0.8597 |       0.8597 |xxxxxxxxxxxxx |xxxxxxxxxxxxx |xxxxxxxxxxxxx |xxxxxxxxxxxxx |       0.8580 |       0.8580 |       0.8580 |xxxxxxxxxxxxx |xxxxxxxxxxxxx |xxxxxxxxxxxxx |xxxxxxxxxxxxx |       0.8583 |       0.8583 |       0.8583 |xxxxxxxxxxxxx |xxxxxxxxxxxxx |xxxxxxxxxxxxx |xxxxxxxxxxxxx |       0.8578 |       0.8578 |       0.8578 |xxxxxxxxxxxxx |xxxxxxxxxxxxx |xxxxxxxxxxxxx |xxxxxxxxxxxxx |       0.8576 |       0.8576 |       0.8576 |
bpred_bimod.bpred_dir_rate                  0.8597 |       0.8597 |       0.8597 |xxxxxxxxxxxxx |xxxxxxxxxxxxx |xxxxxxxxxxxxx |xxxxxxxxxxxxx |       0.8580 |       0.8580 |       0.8580 |xxxxxxxxxxxxx |xxxxxxxxxxxxx |xxxxxxxxxxxxx |xxxxxxxxxxxxx |       0.8583 |       0.8583 |       0.8583 |xxxxxxxxxxxxx |xxxxxxxxxxxxx |xxxxxxxxxxxxx |xxxxxxxxxxxxx |       0.8578 |       0.8578 |       0.8578 |xxxxxxxxxxxxx |xxxxxxxxxxxxx |xxxxxxxxxxxxx |xxxxxxxxxxxxx |       0.8576 |       0.8576 |       0.8576 |
bpred_bimod.bpred_jr_rate                   0.9828 |       0.9828 |       0.9828 |xxxxxxxxxxxxx |xxxxxxxxxxxxx |xxxxxxxxxxxxx |xxxxxxxxxxxxx |       0.9828 |       0.9828 |       0.9828 |xxxxxxxxxxxxx |xxxxxxxxxxxxx |xxxxxxxxxxxxx |xxxxxxxxxxxxx |       0.9828 |       0.9828 |       0.9828 |xxxxxxxxxxxxx |xxxxxxxxxxxxx |xxxxxxxxxxxxx |xxxxxxxxxxxxx |       0.9828 |       0.9828 |       0.9828 |xxxxxxxxxxxxx |xxxxxxxxxxxxx |xxxxxxxxxxxxx |xxxxxxxxxxxxx |       0.9828 |       0.9828 |       0.9828 |
bpred_bimod.bpred_jr_non_ras_rate.PP       <error: |      <error: |      <error: |xxxxxxxxxxxxx |xxxxxxxxxxxxx |xxxxxxxxxxxxx |xxxxxxxxxxxxx |      <error: |      <error: |      <error: |xxxxxxxxxxxxx |xxxxxxxxxxxxx |xxxxxxxxxxxxx |xxxxxxxxxxxxx |      <error: |      <error: |      <error: |xxxxxxxxxxxxx |xxxxxxxxxxxxx |xxxxxxxxxxxxx |xxxxxxxxxxxxx |      <error: |      <error: |      <error: |xxxxxxxxxxxxx |xxxxxxxxxxxxx |xxxxxxxxxxxxx |xxxxxxxxxxxxx |      <error: |      <error: |      <error: |
bpred_bimod.retstack_pushes                     60 |           60 |           60 |xxxxxxxxxxxxx |xxxxxxxxxxxxx |xxxxxxxxxxxxx |xxxxxxxxxxxxx |           60 |           60 |           60 |xxxxxxxxxxxxx |xxxxxxxxxxxxx |xxxxxxxxxxxxx |xxxxxxxxxxxxx |           60 |           60 |           60 |xxxxxxxxxxxxx |xxxxxxxxxxxxx |xxxxxxxxxxxxx |xxxxxxxxxxxxx |           60 |           60 |           60 |xxxxxxxxxxxxx |xxxxxxxxxxxxx |xxxxxxxxxxxxx |xxxxxxxxxxxxx |           60 |           60 |           60 |
bpred_bimod.retstack_pops                       58 |           58 |           58 |xxxxxxxxxxxxx |xxxxxxxxxxxxx |xxxxxxxxxxxxx |xxxxxxxxxxxxx |           58 |           58 |           58 |xxxxxxxxxxxxx |xxxxxxxxxxxxx |xxxxxxxxxxxxx |xxxxxxxxxxxxx |           58 |           58 |           58 |xxxxxxxxxxxxx |xxxxxxxxxxxxx |xxxxxxxxxxxxx |xxxxxxxxxxxxx |           58 |           58 |           58 |xxxxxxxxxxxxx |xxxxxxxxxxxxx |xxxxxxxxxxxxx |xxxxxxxxxxxxx |           58 |           58 |           58 |
bpred_bimod.used_ras.PP                         58 |           58 |           58 |xxxxxxxxxxxxx |xxxxxxxxxxxxx |xxxxxxxxxxxxx |xxxxxxxxxxxxx |           58 |           58 |           58 |xxxxxxxxxxxxx |xxxxxxxxxxxxx |xxxxxxxxxxxxx |xxxxxxxxxxxxx |           58 |           58 |           58 |xxxxxxxxxxxxx |xxxxxxxxxxxxx |xxxxxxxxxxxxx |xxxxxxxxxxxxx |           58 |           58 |           58 |xxxxxxxxxxxxx |xxxxxxxxxxxxx |xxxxxxxxxxxxx |xxxxxxxxxxxxx |           58 |           58 |           58 |
bpred_bimod.ras_hits.PP                         57 |           57 |           57 |xxxxxxxxxxxxx |xxxxxxxxxxxxx |xxxxxxxxxxxxx |xxxxxxxxxxxxx |           57 |           57 |           57 |xxxxxxxxxxxxx |xxxxxxxxxxxxx |xxxxxxxxxxxxx |xxxxxxxxxxxxx |           57 |           57 |           57 |xxxxxxxxxxxxx |xxxxxxxxxxxxx |xxxxxxxxxxxxx |xxxxxxxxxxxxx |           57 |           57 |           57 |xxxxxxxxxxxxx |xxxxxxxxxxxxx |xxxxxxxxxxxxx |xxxxxxxxxxxxx |           57 |           57 |           57 |
bpred_bimod.ras_rate.PP                     0.9828 |       0.9828 |       0.9828 |xxxxxxxxxxxxx |xxxxxxxxxxxxx |xxxxxxxxxxxxx |xxxxxxxxxxxxx |       0.9828 |       0.9828 |       0.9828 |xxxxxxxxxxxxx |xxxxxxxxxxxxx |xxxxxxxxxxxxx |xxxxxxxxxxxxx |       0.9828 |       0.9828 |       0.9828 |xxxxxxxxxxxxx |xxxxxxxxxxxxx |xxxxxxxxxxxxx |xxxxxxxxxxxxx |       0.9828 |       0.9828 |       0.9828 |xxxxxxxxxxxxx |xxxxxxxxxxxxx |xxxxxxxxxxxxx |xxxxxxxxxxxxx |       0.9828 |       0.9828 |       0.9828 |
bpred_2lev.lookups                   xxxxxxxxxxxxx |xxxxxxxxxxxxx |xxxxxxxxxxxxx |     16782669 |     16782669 |     16782669 |     16782669 |xxxxxxxxxxxxx |xxxxxxxxxxxxx |xxxxxxxxxxxxx |     67119266 |     67119266 |     67119266 |     67119266 |xxxxxxxxxxxxx |xxxxxxxxxxxxx |xxxxxxxxxxxxx |    268449645 |    268449645 |    268449645 |    268449645 |xxxxxxxxxxxxx |xxxxxxxxxxxxx |xxxxxxxxxxxxx |   1073774246 |   1073774246 |   1073774246 |   1073774246 |xxxxxxxxxxxxx |xxxxxxxxxxxxx |xxxxxxxxxxxxx |   4295025126 |   4295025126 |   4295025126 |   4295025126 |
bpred_2lev.updates                   xxxxxxxxxxxxx |xxxxxxxxxxxxx |xxxxxxxxxxxxx |     16782669 |     16782669 |     16782669 |     16782669 |xxxxxxxxxxxxx |xxxxxxxxxxxxx |xxxxxxxxxxxxx |     67119266 |     67119266 |     67119266 |     67119266 |xxxxxxxxxxxxx |xxxxxxxxxxxxx |xxxxxxxxxxxxx |    268449645 |    268449645 |    268449645 |    268449645 |xxxxxxxxxxxxx |xxxxxxxxxxxxx |xxxxxxxxxxxxx |   1073774246 |   1073774246 |   1073774246 |   1073774246 |xxxxxxxxxxxxx |xxxxxxxxxxxxx |xxxxxxxxxxxxx |   4295025126 |   4295025126 |   4295025126 |   4295025126 |
bpred_2lev.addr_hits                 xxxxxxxxxxxxx |xxxxxxxxxxxxx |xxxxxxxxxxxxx |     14309992 |     14290758 |     14290876 |     14302800 |xxxxxxxxxxxxx |xxxxxxxxxxxxx |xxxxxxxxxxxxx |     57286774 |     57241840 |     57242147 |     57285329 |xxxxxxxxxxxxx |xxxxxxxxxxxxx |xxxxxxxxxxxxx |    229610537 |    229643267 |    229643933 |    229809916 |xxxxxxxxxxxxx |xxxxxxxxxxxxx |xxxxxxxxxxxxx |    918402215 |    918807567 |    918809066 |    919592756 |xxxxxxxxxxxxx |xxxxxxxxxxxxx |xxxxxxxxxxxxx |   3673880814 |   3675949650 |   3675952933 |   3679615443 |
bpred_2lev.dir_hits                  xxxxxxxxxxxxx |xxxxxxxxxxxxx |xxxxxxxxxxxxx |     14310089 |     14290852 |     14290969 |     14302894 |xxxxxxxxxxxxx |xxxxxxxxxxxxx |xxxxxxxxxxxxx |     57286875 |     57241934 |     57242240 |     57285422 |xxxxxxxxxxxxx |xxxxxxxxxxxxx |xxxxxxxxxxxxx |    229610637 |    229643364 |    229644027 |    229810009 |xxxxxxxxxxxxx |xxxxxxxxxxxxx |xxxxxxxxxxxxx |    918402316 |    918807660 |    918809156 |    919592848 |xxxxxxxxxxxxx |xxxxxxxxxxxxx |xxxxxxxxxxxxx |   3673880915 |   3675949742 |   3675953023 |   3679615535 |
bpred_2lev.misses                    xxxxxxxxxxxxx |xxxxxxxxxxxxx |xxxxxxxxxxxxx |      2472580 |      2491817 |      2491700 |      2479775 |xxxxxxxxxxxxx |xxxxxxxxxxxxx |xxxxxxxxxxxxx |      9832391 |      9877332 |      9877026 |      9833844 |xxxxxxxxxxxxx |xxxxxxxxxxxxx |xxxxxxxxxxxxx |     38839008 |     38806281 |     38805618 |     38639636 |xxxxxxxxxxxxx |xxxxxxxxxxxxx |xxxxxxxxxxxxx |    155371930 |    154966586 |    154965090 |    154181398 |xxxxxxxxxxxxx |xxxxxxxxxxxxx |xxxxxxxxxxxxx |    621144211 |    619075384 |    619072103 |    615409591 |
bpred_2lev.jr_hits                   xxxxxxxxxxxxx |xxxxxxxxxxxxx |xxxxxxxxxxxxx |           57 |           57 |           57 |           57 |xxxxxxxxxxxxx |xxxxxxxxxxxxx |xxxxxxxxxxxxx |           57 |           57 |           57 |           57 |xxxxxxxxxxxxx |xxxxxxxxxxxxx |xxxxxxxxxxxxx |           57 |           57 |           57 |           57 |xxxxxxxxxxxxx |xxxxxxxxxxxxx |xxxxxxxxxxxxx |           57 |           57 |           57 |           57 |xxxxxxxxxxxxx |xxxxxxxxxxxxx |xxxxxxxxxxxxx |           57 |           57 |           57 |           57 |
bpred_2lev.jr_seen                   xxxxxxxxxxxxx |xxxxxxxxxxxxx |xxxxxxxxxxxxx |           58 |           58 |           58 |           58 |xxxxxxxxxxxxx |xxxxxxxxxxxxx |xxxxxxxxxxxxx |           58 |           58 |           58 |           58 |xxxxxxxxxxxxx |xxxxxxxxxxxxx |xxxxxxxxxxxxx |           58 |           58 |           58 |           58 |xxxxxxxxxxxxx |xxxxxxxxxxxxx |xxxxxxxxxxxxx |           58 |           58 |           58 |           58 |xxxxxxxxxxxxx |xxxxxxxxxxxxx |xxxxxxxxxxxxx |           58 |           58 |           58 |           58 |
bpred_2lev.jr_non_ras_hits.PP        xxxxxxxxxxxxx |xxxxxxxxxxxxx |xxxxxxxxxxxxx |            0 |            0 |            0 |            0 |xxxxxxxxxxxxx |xxxxxxxxxxxxx |xxxxxxxxxxxxx |            0 |            0 |            0 |            0 |xxxxxxxxxxxxx |xxxxxxxxxxxxx |xxxxxxxxxxxxx |            0 |            0 |            0 |            0 |xxxxxxxxxxxxx |xxxxxxxxxxxxx |xxxxxxxxxxxxx |            0 |            0 |            0 |            0 |xxxxxxxxxxxxx |xxxxxxxxxxxxx |xxxxxxxxxxxxx |            0 |            0 |            0 |            0 |
bpred_2lev.jr_non_ras_seen.PP        xxxxxxxxxxxxx |xxxxxxxxxxxxx |xxxxxxxxxxxxx |            0 |            0 |            0 |            0 |xxxxxxxxxxxxx |xxxxxxxxxxxxx |xxxxxxxxxxxxx |            0 |            0 |            0 |            0 |xxxxxxxxxxxxx |xxxxxxxxxxxxx |xxxxxxxxxxxxx |            0 |            0 |            0 |            0 |xxxxxxxxxxxxx |xxxxxxxxxxxxx |xxxxxxxxxxxxx |            0 |            0 |            0 |            0 |xxxxxxxxxxxxx |xxxxxxxxxxxxx |xxxxxxxxxxxxx |            0 |            0 |            0 |            0 |
bpred_2lev.bpred_addr_rate           xxxxxxxxxxxxx |xxxxxxxxxxxxx |xxxxxxxxxxxxx |       0.8527 |       0.8515 |       0.8515 |       0.8522 |xxxxxxxxxxxxx |xxxxxxxxxxxxx |xxxxxxxxxxxxx |       0.8535 |       0.8528 |       0.8528 |       0.8535 |xxxxxxxxxxxxx |xxxxxxxxxxxxx |xxxxxxxxxxxxx |       0.8553 |       0.8554 |       0.8554 |       0.8561 |xxxxxxxxxxxxx |xxxxxxxxxxxxx |xxxxxxxxxxxxx |       0.8553 |       0.8557 |       0.8557 |       0.8564 |xxxxxxxxxxxxx |xxxxxxxxxxxxx |xxxxxxxxxxxxx |       0.8554 |       0.8559 |       0.8559 |       0.8567 |
bpred_2lev.bpred_dir_rate            xxxxxxxxxxxxx |xxxxxxxxxxxxx |xxxxxxxxxxxxx |       0.8527 |       0.8515 |       0.8515 |       0.8522 |xxxxxxxxxxxxx |xxxxxxxxxxxxx |xxxxxxxxxxxxx |       0.8535 |       0.8528 |       0.8528 |       0.8535 |xxxxxxxxxxxxx |xxxxxxxxxxxxx |xxxxxxxxxxxxx |       0.8553 |       0.8554 |       0.8554 |       0.8561 |xxxxxxxxxxxxx |xxxxxxxxxxxxx |xxxxxxxxxxxxx |       0.8553 |       0.8557 |       0.8557 |       0.8564 |xxxxxxxxxxxxx |xxxxxxxxxxxxx |xxxxxxxxxxxxx |       0.8554 |       0.8559 |       0.8559 |       0.8567 |
bpred_2lev.bpred_jr_rate             xxxxxxxxxxxxx |xxxxxxxxxxxxx |xxxxxxxxxxxxx |       0.9828 |       0.9828 |       0.9828 |       0.9828 |xxxxxxxxxxxxx |xxxxxxxxxxxxx |xxxxxxxxxxxxx |       0.9828 |       0.9828 |       0.9828 |       0.9828 |xxxxxxxxxxxxx |xxxxxxxxxxxxx |xxxxxxxxxxxxx |       0.9828 |       0.9828 |       0.9828 |       0.9828 |xxxxxxxxxxxxx |xxxxxxxxxxxxx |xxxxxxxxxxxxx |       0.9828 |       0.9828 |       0.9828 |       0.9828 |xxxxxxxxxxxxx |xxxxxxxxxxxxx |xxxxxxxxxxxxx |       0.9828 |       0.9828 |       0.9828 |       0.9828 |
bpred_2lev.bpred_jr_non_ras_rate.PP  xxxxxxxxxxxxx |xxxxxxxxxxxxx |xxxxxxxxxxxxx |      <error: |      <error: |      <error: |      <error: |xxxxxxxxxxxxx |xxxxxxxxxxxxx |xxxxxxxxxxxxx |      <error: |      <error: |      <error: |      <error: |xxxxxxxxxxxxx |xxxxxxxxxxxxx |xxxxxxxxxxxxx |      <error: |      <error: |      <error: |      <error: |xxxxxxxxxxxxx |xxxxxxxxxxxxx |xxxxxxxxxxxxx |      <error: |      <error: |      <error: |      <error: |xxxxxxxxxxxxx |xxxxxxxxxxxxx |xxxxxxxxxxxxx |      <error: |      <error: |      <error: |      <error: |
bpred_2lev.retstack_pushes           xxxxxxxxxxxxx |xxxxxxxxxxxxx |xxxxxxxxxxxxx |           60 |           60 |           60 |           60 |xxxxxxxxxxxxx |xxxxxxxxxxxxx |xxxxxxxxxxxxx |           60 |           60 |           60 |           60 |xxxxxxxxxxxxx |xxxxxxxxxxxxx |xxxxxxxxxxxxx |           60 |           60 |           60 |           60 |xxxxxxxxxxxxx |xxxxxxxxxxxxx |xxxxxxxxxxxxx |           60 |           60 |           60 |           60 |xxxxxxxxxxxxx |xxxxxxxxxxxxx |xxxxxxxxxxxxx |           60 |           60 |           60 |           60 |
bpred_2lev.retstack_pops             xxxxxxxxxxxxx |xxxxxxxxxxxxx |xxxxxxxxxxxxx |           58 |           58 |           58 |           58 |xxxxxxxxxxxxx |xxxxxxxxxxxxx |xxxxxxxxxxxxx |           58 |           58 |           58 |           58 |xxxxxxxxxxxxx |xxxxxxxxxxxxx |xxxxxxxxxxxxx |           58 |           58 |           58 |           58 |xxxxxxxxxxxxx |xxxxxxxxxxxxx |xxxxxxxxxxxxx |           58 |           58 |           58 |           58 |xxxxxxxxxxxxx |xxxxxxxxxxxxx |xxxxxxxxxxxxx |           58 |           58 |           58 |           58 |
bpred_2lev.used_ras.PP               xxxxxxxxxxxxx |xxxxxxxxxxxxx |xxxxxxxxxxxxx |           58 |           58 |           58 |           58 |xxxxxxxxxxxxx |xxxxxxxxxxxxx |xxxxxxxxxxxxx |           58 |           58 |           58 |           58 |xxxxxxxxxxxxx |xxxxxxxxxxxxx |xxxxxxxxxxxxx |           58 |           58 |           58 |           58 |xxxxxxxxxxxxx |xxxxxxxxxxxxx |xxxxxxxxxxxxx |           58 |           58 |           58 |           58 |xxxxxxxxxxxxx |xxxxxxxxxxxxx |xxxxxxxxxxxxx |           58 |           58 |           58 |           58 |
bpred_2lev.ras_hits.PP               xxxxxxxxxxxxx |xxxxxxxxxxxxx |xxxxxxxxxxxxx |           57 |           57 |           57 |           57 |xxxxxxxxxxxxx |xxxxxxxxxxxxx |xxxxxxxxxxxxx |           57 |           57 |           57 |           57 |xxxxxxxxxxxxx |xxxxxxxxxxxxx |xxxxxxxxxxxxx |           57 |           57 |           57 |           57 |xxxxxxxxxxxxx |xxxxxxxxxxxxx |xxxxxxxxxxxxx |           57 |           57 |           57 |           57 |xxxxxxxxxxxxx |xxxxxxxxxxxxx |xxxxxxxxxxxxx |           57 |           57 |           57 |           57 |
bpred_2lev.ras_rate.PP               xxxxxxxxxxxxx |xxxxxxxxxxxxx |xxxxxxxxxxxxx |       0.9828 |       0.9828 |       0.9828 |       0.9828 |xxxxxxxxxxxxx |xxxxxxxxxxxxx |xxxxxxxxxxxxx |       0.9828 |       0.9828 |       0.9828 |       0.9828 |xxxxxxxxxxxxx |xxxxxxxxxxxxx |xxxxxxxxxxxxx |       0.9828 |       0.9828 |       0.9828 |       0.9828 |xxxxxxxxxxxxx |xxxxxxxxxxxxx |xxxxxxxxxxxxx |       0.9828 |       0.9828 |       0.9828 |       0.9828 |xxxxxxxxxxxxx |xxxxxxxxxxxxx |xxxxxxxxxxxxx |       0.9828 |       0.9828 |       0.9828 |       0.9828 |

Command list: 
	sslittle-na-sstrix-gcc -Wall -O3 -funroll-loops -finline-functions  -DRANDOM_SIZE=4096 -DOFFSET=4 -DSORT=on2_bubblesort sorts/on2_bubblesort2109694966.c simpleMain.c -o on2_bubblesort1725693352
	sim-cache -cache:dl1 dl1:256:32:1:l -cache:dl2 dl2:131072:32:1:l -cache:il1 il1:256:32:1:l -cache:il2 dl2 on2_bubblesort1725693352
	sim-cache -cache:dl1 dl1:256:32:1:l -cache:dl2 dl2:65536:32:1:l -cache:il1 il1:256:32:1:l -cache:il2 dl2 on2_bubblesort1725693352
	sim-cache -cache:dl1 dl1:1:32:256:l -cache:dl2 dl2:1:32:131072:l -cache:il1 il1:1:32:256:l -cache:il2 dl2 on2_bubblesort1725693352
	sim-cache -cache:dl1 dl1:1:32:256:l -cache:dl2 dl2:1:32:65536:l -cache:il1 il1:1:32:256:l -cache:il2 dl2 on2_bubblesort1725693352
	sim-bpred -bpred bimod -bpred:bimod 512 on2_bubblesort1725693352
	sim-bpred -bpred bimod -bpred:bimod 1024 on2_bubblesort1725693352
	sim-bpred -bpred bimod -bpred:bimod 2048 on2_bubblesort1725693352
	sim-bpred -bpred 2lev -bpred:2lev 1 512 10 1 on2_bubblesort1725693352
	sim-bpred -bpred 2lev -bpred:2lev 1 1024 10 1 on2_bubblesort1725693352
	sim-bpred -bpred 2lev -bpred:2lev 1 2048 10 1 on2_bubblesort1725693352
	sim-bpred -bpred 2lev -bpred:2lev 1 4096 10 1 on2_bubblesort1725693352
	sslittle-na-sstrix-gcc -Wall -O3 -funroll-loops -finline-functions  -DRANDOM_SIZE=8192 -DOFFSET=4 -DSORT=on2_bubblesort sorts/on2_bubblesort2109694966.c simpleMain.c -o on2_bubblesort1725693352
	sim-cache -cache:dl1 dl1:256:32:1:l -cache:dl2 dl2:131072:32:1:l -cache:il1 il1:256:32:1:l -cache:il2 dl2 on2_bubblesort1725693352
	sim-cache -cache:dl1 dl1:256:32:1:l -cache:dl2 dl2:65536:32:1:l -cache:il1 il1:256:32:1:l -cache:il2 dl2 on2_bubblesort1725693352
	sim-cache -cache:dl1 dl1:1:32:256:l -cache:dl2 dl2:1:32:131072:l -cache:il1 il1:1:32:256:l -cache:il2 dl2 on2_bubblesort1725693352
	sim-cache -cache:dl1 dl1:1:32:256:l -cache:dl2 dl2:1:32:65536:l -cache:il1 il1:1:32:256:l -cache:il2 dl2 on2_bubblesort1725693352
	sim-bpred -bpred bimod -bpred:bimod 512 on2_bubblesort1725693352
	sim-bpred -bpred bimod -bpred:bimod 1024 on2_bubblesort1725693352
	sim-bpred -bpred bimod -bpred:bimod 2048 on2_bubblesort1725693352
	sim-bpred -bpred 2lev -bpred:2lev 1 512 10 1 on2_bubblesort1725693352
	sim-bpred -bpred 2lev -bpred:2lev 1 1024 10 1 on2_bubblesort1725693352
	sim-bpred -bpred 2lev -bpred:2lev 1 2048 10 1 on2_bubblesort1725693352
	sim-bpred -bpred 2lev -bpred:2lev 1 4096 10 1 on2_bubblesort1725693352
	sslittle-na-sstrix-gcc -Wall -O3 -funroll-loops -finline-functions  -DRANDOM_SIZE=16384 -DOFFSET=4 -DSORT=on2_bubblesort sorts/on2_bubblesort2109694966.c simpleMain.c -o on2_bubblesort1725693352
	sim-cache -cache:dl1 dl1:256:32:1:l -cache:dl2 dl2:131072:32:1:l -cache:il1 il1:256:32:1:l -cache:il2 dl2 on2_bubblesort1725693352
	sim-cache -cache:dl1 dl1:256:32:1:l -cache:dl2 dl2:65536:32:1:l -cache:il1 il1:256:32:1:l -cache:il2 dl2 on2_bubblesort1725693352
	sim-cache -cache:dl1 dl1:1:32:256:l -cache:dl2 dl2:1:32:131072:l -cache:il1 il1:1:32:256:l -cache:il2 dl2 on2_bubblesort1725693352
	sim-cache -cache:dl1 dl1:1:32:256:l -cache:dl2 dl2:1:32:65536:l -cache:il1 il1:1:32:256:l -cache:il2 dl2 on2_bubblesort1725693352
	sim-bpred -bpred bimod -bpred:bimod 512 on2_bubblesort1725693352
	sim-bpred -bpred bimod -bpred:bimod 1024 on2_bubblesort1725693352
	sim-bpred -bpred bimod -bpred:bimod 2048 on2_bubblesort1725693352
	sim-bpred -bpred 2lev -bpred:2lev 1 512 10 1 on2_bubblesort1725693352
	sim-bpred -bpred 2lev -bpred:2lev 1 1024 10 1 on2_bubblesort1725693352
	sim-bpred -bpred 2lev -bpred:2lev 1 2048 10 1 on2_bubblesort1725693352
	sim-bpred -bpred 2lev -bpred:2lev 1 4096 10 1 on2_bubblesort1725693352
	sslittle-na-sstrix-gcc -Wall -O3 -funroll-loops -finline-functions  -DRANDOM_SIZE=32768 -DOFFSET=4 -DSORT=on2_bubblesort sorts/on2_bubblesort2109694966.c simpleMain.c -o on2_bubblesort1725693352
	sim-cache -cache:dl1 dl1:256:32:1:l -cache:dl2 dl2:131072:32:1:l -cache:il1 il1:256:32:1:l -cache:il2 dl2 on2_bubblesort1725693352
	sim-cache -cache:dl1 dl1:256:32:1:l -cache:dl2 dl2:65536:32:1:l -cache:il1 il1:256:32:1:l -cache:il2 dl2 on2_bubblesort1725693352
	sim-cache -cache:dl1 dl1:1:32:256:l -cache:dl2 dl2:1:32:131072:l -cache:il1 il1:1:32:256:l -cache:il2 dl2 on2_bubblesort1725693352
	sim-cache -cache:dl1 dl1:1:32:256:l -cache:dl2 dl2:1:32:65536:l -cache:il1 il1:1:32:256:l -cache:il2 dl2 on2_bubblesort1725693352
	sim-bpred -bpred bimod -bpred:bimod 512 on2_bubblesort1725693352
	sim-bpred -bpred bimod -bpred:bimod 1024 on2_bubblesort1725693352
	sim-bpred -bpred bimod -bpred:bimod 2048 on2_bubblesort1725693352
	sim-bpred -bpred 2lev -bpred:2lev 1 512 10 1 on2_bubblesort1725693352
	sim-bpred -bpred 2lev -bpred:2lev 1 1024 10 1 on2_bubblesort1725693352
	sim-bpred -bpred 2lev -bpred:2lev 1 2048 10 1 on2_bubblesort1725693352
	sim-bpred -bpred 2lev -bpred:2lev 1 4096 10 1 on2_bubblesort1725693352
	sslittle-na-sstrix-gcc -Wall -O3 -funroll-loops -finline-functions  -DRANDOM_SIZE=65536 -DOFFSET=4 -DSORT=on2_bubblesort sorts/on2_bubblesort2109694966.c simpleMain.c -o on2_bubblesort1725693352
	sim-cache -cache:dl1 dl1:256:32:1:l -cache:dl2 dl2:131072:32:1:l -cache:il1 il1:256:32:1:l -cache:il2 dl2 on2_bubblesort1725693352
	sim-cache -cache:dl1 dl1:256:32:1:l -cache:dl2 dl2:65536:32:1:l -cache:il1 il1:256:32:1:l -cache:il2 dl2 on2_bubblesort1725693352
	sim-cache -cache:dl1 dl1:1:32:256:l -cache:dl2 dl2:1:32:131072:l -cache:il1 il1:1:32:256:l -cache:il2 dl2 on2_bubblesort1725693352
	sim-cache -cache:dl1 dl1:1:32:256:l -cache:dl2 dl2:1:32:65536:l -cache:il1 il1:1:32:256:l -cache:il2 dl2 on2_bubblesort1725693352
	sim-bpred -bpred bimod -bpred:bimod 512 on2_bubblesort1725693352
	sim-bpred -bpred bimod -bpred:bimod 1024 on2_bubblesort1725693352
	sim-bpred -bpred bimod -bpred:bimod 2048 on2_bubblesort1725693352
	sim-bpred -bpred 2lev -bpred:2lev 1 512 10 1 on2_bubblesort1725693352
	sim-bpred -bpred 2lev -bpred:2lev 1 1024 10 1 on2_bubblesort1725693352
	sim-bpred -bpred 2lev -bpred:2lev 1 2048 10 1 on2_bubblesort1725693352
	sim-bpred -bpred 2lev -bpred:2lev 1 4096 10 1 on2_bubblesort1725693352
