Mon Jun 27 04:41:48 2005
Run as: "./do_simple -c random.org1 -o 1 -M 65536 on2_shakersort2"
-------------------------------------------------------------------------------------------------
sim-cache                                     4096 |         4096 |         4096 |         4096 |         8192 |         8192 |         8192 |         8192 |        16384 |        16384 |        16384 |        16384 |        32768 |        32768 |        32768 |        32768 |        65536 |        65536 |        65536 |        65536 |
-cache:dl1 dl1:256:32:1:l -cache:dl2 dl2:131072:32:1:l -cache:il1 il1:256:32:1:l -cache:il2 dl2
-cache:dl1 dl1:256:32:1:l -cache:dl2 dl2:65536:32:1:l -cache:il1 il1:256:32:1:l -cache:il2 dl2
-cache:dl1 dl1:1:32:256:l -cache:dl2 dl2:1:32:131072:l -cache:il1 il1:1:32:256:l -cache:il2 dl2
-cache:dl1 dl1:1:32:256:l -cache:dl2 dl2:1:32:65536:l -cache:il1 il1:1:32:256:l -cache:il2 dl2
-------------------------------------------------------------------------------------------------
sim_num_insn                              48870221 |     48870221 |     48870221 |     48870221 |    194387944 |    194387944 |    194387944 |    194387944 |    785821034 |    785821034 |    785821034 |    785821034 |   3139240518 |   3139240518 |   3139240518 |   3139240518 |  12505812168 |  12505812168 |  12505812168 |  12505812168 |
sim_num_refs                              19531884 |     19531884 |     19531884 |     19531884 |     77741154 |     77741154 |     77741154 |     77741154 |    314229126 |    314229126 |    314229126 |    314229126 |   1255510342 |   1255510342 |   1255510342 |   1255510342 |   5002142866 |   5002142866 |   5002142866 |   5002142866 |
sim_elapsed_time                                16 |           16 |           19 |           16 |           62 |           60 |           61 |           55 |          216 |          217 |          222 |          215 |          864 |          863 |          861 |          846 |         3431 |         3425 |         3384 |         3352 |
sim_inst_rate                         3054388.8125 | 3054388.8125 | 2572116.8947 | 3054388.8125 | 3135289.4194 | 3239799.0667 | 3186687.6066 | 3534326.2545 | 3638060.3426 | 3621295.0876 | 3539734.3874 | 3654981.5535 | 3633380.2292 | 3637590.4032 | 3646040.0906 | 3710686.1915 | 3644946.7117 | 3651332.0199 | 3695570.9716 | 3730850.8854 |
il1.accesses                              48870221 |     48870221 |     48870221 |     48870221 |    194387944 |    194387944 |    194387944 |    194387944 |    785821034 |    785821034 |    785821034 |    785821034 |   3139240518 |   3139240518 |   3139240518 |   3139240518 |  12505812168 |  12505812168 |  12505812168 |  12505812168 |
il1.hits                                  48869825 |     48869825 |     48869881 |     48869881 |    194387548 |    194387548 |    194387604 |    194387604 |    785820630 |    785820630 |    785820690 |    785820690 |   3139240122 |   3139240122 |   3139240176 |   3139240176 |  12505811772 |  12505811772 |  12505811826 |  12505811826 |
il1.misses                                     396 |          396 |          340 |          340 |          396 |          396 |          340 |          340 |          404 |          404 |          344 |          344 |          396 |          396 |          342 |          342 |          396 |          396 |          342 |          342 |
il1.replacements                               209 |          209 |           84 |           84 |          208 |          208 |           84 |           84 |          212 |          212 |           88 |           88 |          207 |          207 |           86 |           86 |          207 |          207 |           86 |           86 |
il1.writebacks                                   0 |            0 |            0 |            0 |            0 |            0 |            0 |            0 |            0 |            0 |            0 |            0 |            0 |            0 |            0 |            0 |            0 |            0 |            0 |            0 |
il1.invalidations                                0 |            0 |            0 |            0 |            0 |            0 |            0 |            0 |            0 |            0 |            0 |            0 |            0 |            0 |            0 |            0 |            0 |            0 |            0 |            0 |
il1.miss_rate                               0.0000 |       0.0000 |       0.0000 |       0.0000 |       0.0000 |       0.0000 |       0.0000 |       0.0000 |       0.0000 |       0.0000 |       0.0000 |       0.0000 |       0.0000 |       0.0000 |       0.0000 |       0.0000 |       0.0000 |       0.0000 |       0.0000 |       0.0000 |
il1.repl_rate                               0.0000 |       0.0000 |       0.0000 |       0.0000 |       0.0000 |       0.0000 |       0.0000 |       0.0000 |       0.0000 |       0.0000 |       0.0000 |       0.0000 |       0.0000 |       0.0000 |       0.0000 |       0.0000 |       0.0000 |       0.0000 |       0.0000 |       0.0000 |
il1.wb_rate                                 0.0000 |       0.0000 |       0.0000 |       0.0000 |       0.0000 |       0.0000 |       0.0000 |       0.0000 |       0.0000 |       0.0000 |       0.0000 |       0.0000 |       0.0000 |       0.0000 |       0.0000 |       0.0000 |       0.0000 |       0.0000 |       0.0000 |       0.0000 |
il1.inv_rate                                0.0000 |       0.0000 |       0.0000 |       0.0000 |       0.0000 |       0.0000 |       0.0000 |       0.0000 |       0.0000 |       0.0000 |       0.0000 |       0.0000 |       0.0000 |       0.0000 |       0.0000 |       0.0000 |       0.0000 |       0.0000 |       0.0000 |       0.0000 |
dl1.accesses                              19548350 |     19548350 |     19548350 |     19548350 |     77774004 |     77774004 |     77774004 |     77774004 |    314294744 |    314294744 |    314294744 |    314294744 |   1255641496 |   1255641496 |   1255641496 |   1255641496 |   5002405092 |   5002405092 |   5002405092 |   5002405092 |
dl1.hits                                  19329586 |     19329586 |     19329586 |     19329586 |     76008091 |     76008091 |     76008091 |     76008091 |    305145885 |    305145885 |    305145885 |    305145885 |   1214974292 |   1214974292 |   1214974292 |   1214974292 |   4832050076 |   4832050076 |   4832050076 |   4832050076 |
dl1.misses                                  218764 |       218764 |       218764 |       218764 |      1765913 |      1765913 |      1765913 |      1765913 |      9148859 |      9148859 |      9148859 |      9148859 |     40667204 |     40667204 |     40667204 |     40667204 |    170355016 |    170355016 |    170355016 |    170355016 |
dl1.replacements                            218508 |       218508 |       218508 |       218508 |      1765657 |      1765657 |      1765657 |      1765657 |      9148603 |      9148603 |      9148603 |      9148603 |     40666948 |     40666948 |     40666948 |     40666948 |    170354760 |    170354760 |    170354760 |    170354760 |
dl1.writebacks                              218440 |       218440 |       218440 |       218440 |      1765369 |      1765369 |      1765369 |      1765369 |      9147629 |      9147629 |      9147629 |      9147629 |     40653575 |     40653575 |     40653575 |     40653575 |    170240506 |    170240506 |    170240506 |    170240506 |
dl1.invalidations                                0 |            0 |            0 |            0 |            0 |            0 |            0 |            0 |            0 |            0 |            0 |            0 |            0 |            0 |            0 |            0 |            0 |            0 |            0 |            0 |
dl1.miss_rate                               0.0112 |       0.0112 |       0.0112 |       0.0112 |       0.0227 |       0.0227 |       0.0227 |       0.0227 |       0.0291 |       0.0291 |       0.0291 |       0.0291 |       0.0324 |       0.0324 |       0.0324 |       0.0324 |       0.0341 |       0.0341 |       0.0341 |       0.0341 |
dl1.repl_rate                               0.0112 |       0.0112 |       0.0112 |       0.0112 |       0.0227 |       0.0227 |       0.0227 |       0.0227 |       0.0291 |       0.0291 |       0.0291 |       0.0291 |       0.0324 |       0.0324 |       0.0324 |       0.0324 |       0.0341 |       0.0341 |       0.0341 |       0.0341 |
dl1.wb_rate                                 0.0112 |       0.0112 |       0.0112 |       0.0112 |       0.0227 |       0.0227 |       0.0227 |       0.0227 |       0.0291 |       0.0291 |       0.0291 |       0.0291 |       0.0324 |       0.0324 |       0.0324 |       0.0324 |       0.0340 |       0.0340 |       0.0340 |       0.0340 |
dl1.inv_rate                                0.0000 |       0.0000 |       0.0000 |       0.0000 |       0.0000 |       0.0000 |       0.0000 |       0.0000 |       0.0000 |       0.0000 |       0.0000 |       0.0000 |       0.0000 |       0.0000 |       0.0000 |       0.0000 |       0.0000 |       0.0000 |       0.0000 |       0.0000 |
dl2.accesses                                437600 |       437600 |       437544 |       437544 |      3531678 |      3531678 |      3531622 |      3531622 |     18296892 |     18296892 |     18296832 |     18296832 |     81321175 |     81321175 |     81321121 |     81321121 |    340595918 |    340595918 |    340595864 |    340595864 |
dl2.hits                                    436335 |       436335 |       436284 |       436284 |      3529901 |      3529901 |      3529850 |      3529850 |     18294084 |     18294084 |     18294029 |     18294029 |     81316324 |     81316324 |     81316275 |     81316275 |    340586971 |    340586971 |    340586922 |    340586922 |
dl2.misses                                    1265 |         1265 |         1260 |         1260 |         1777 |         1777 |         1772 |         1772 |         2808 |         2808 |         2803 |         2803 |         4851 |         4851 |         4846 |         4846 |         8947 |         8947 |         8942 |         8942 |
dl2.replacements                                64 |           64 |            0 |            0 |           64 |           64 |            0 |            0 |           63 |           63 |            0 |            0 |           64 |           64 |            0 |            0 |           64 |           64 |            0 |            0 |
dl2.writebacks                                   2 |            2 |            0 |            0 |            2 |            2 |            0 |            0 |            4 |            4 |            0 |            0 |            3 |            3 |            0 |            0 |            3 |            3 |            0 |            0 |
dl2.invalidations                                0 |            0 |            0 |            0 |            0 |            0 |            0 |            0 |            0 |            0 |            0 |            0 |            0 |            0 |            0 |            0 |            0 |            0 |            0 |            0 |
dl2.miss_rate                               0.0029 |       0.0029 |       0.0029 |       0.0029 |       0.0005 |       0.0005 |       0.0005 |       0.0005 |       0.0002 |       0.0002 |       0.0002 |       0.0002 |       0.0001 |       0.0001 |       0.0001 |       0.0001 |       0.0000 |       0.0000 |       0.0000 |       0.0000 |
dl2.repl_rate                               0.0001 |       0.0001 |       0.0000 |       0.0000 |       0.0000 |       0.0000 |       0.0000 |       0.0000 |       0.0000 |       0.0000 |       0.0000 |       0.0000 |       0.0000 |       0.0000 |       0.0000 |       0.0000 |       0.0000 |       0.0000 |       0.0000 |       0.0000 |
dl2.wb_rate                                 0.0000 |       0.0000 |       0.0000 |       0.0000 |       0.0000 |       0.0000 |       0.0000 |       0.0000 |       0.0000 |       0.0000 |       0.0000 |       0.0000 |       0.0000 |       0.0000 |       0.0000 |       0.0000 |       0.0000 |       0.0000 |       0.0000 |       0.0000 |
dl2.inv_rate                                0.0000 |       0.0000 |       0.0000 |       0.0000 |       0.0000 |       0.0000 |       0.0000 |       0.0000 |       0.0000 |       0.0000 |       0.0000 |       0.0000 |       0.0000 |       0.0000 |       0.0000 |       0.0000 |       0.0000 |       0.0000 |       0.0000 |       0.0000 |
itlb.accesses                             48870221 |     48870221 |     48870221 |     48870221 |    194387944 |    194387944 |    194387944 |    194387944 |    785821034 |    785821034 |    785821034 |    785821034 |   3139240518 |   3139240518 |   3139240518 |   3139240518 |  12505812168 |  12505812168 |  12505812168 |  12505812168 |
itlb.hits                                 48870212 |     48870212 |     48870212 |     48870212 |    194387935 |    194387935 |    194387935 |    194387935 |    785821025 |    785821025 |    785821025 |    785821025 |   3139240509 |   3139240509 |   3139240509 |   3139240509 |  12505812159 |  12505812159 |  12505812159 |  12505812159 |
itlb.misses                                      9 |            9 |            9 |            9 |            9 |            9 |            9 |            9 |            9 |            9 |            9 |            9 |            9 |            9 |            9 |            9 |            9 |            9 |            9 |            9 |
itlb.replacements                                0 |            0 |            0 |            0 |            0 |            0 |            0 |            0 |            0 |            0 |            0 |            0 |            0 |            0 |            0 |            0 |            0 |            0 |            0 |            0 |
itlb.writebacks                                  0 |            0 |            0 |            0 |            0 |            0 |            0 |            0 |            0 |            0 |            0 |            0 |            0 |            0 |            0 |            0 |            0 |            0 |            0 |            0 |
itlb.invalidations                               0 |            0 |            0 |            0 |            0 |            0 |            0 |            0 |            0 |            0 |            0 |            0 |            0 |            0 |            0 |            0 |            0 |            0 |            0 |            0 |
itlb.miss_rate                              0.0000 |       0.0000 |       0.0000 |       0.0000 |       0.0000 |       0.0000 |       0.0000 |       0.0000 |       0.0000 |       0.0000 |       0.0000 |       0.0000 |       0.0000 |       0.0000 |       0.0000 |       0.0000 |       0.0000 |       0.0000 |       0.0000 |       0.0000 |
itlb.repl_rate                              0.0000 |       0.0000 |       0.0000 |       0.0000 |       0.0000 |       0.0000 |       0.0000 |       0.0000 |       0.0000 |       0.0000 |       0.0000 |       0.0000 |       0.0000 |       0.0000 |       0.0000 |       0.0000 |       0.0000 |       0.0000 |       0.0000 |       0.0000 |
itlb.wb_rate                                0.0000 |       0.0000 |       0.0000 |       0.0000 |       0.0000 |       0.0000 |       0.0000 |       0.0000 |       0.0000 |       0.0000 |       0.0000 |       0.0000 |       0.0000 |       0.0000 |       0.0000 |       0.0000 |       0.0000 |       0.0000 |       0.0000 |       0.0000 |
itlb.inv_rate                               0.0000 |       0.0000 |       0.0000 |       0.0000 |       0.0000 |       0.0000 |       0.0000 |       0.0000 |       0.0000 |       0.0000 |       0.0000 |       0.0000 |       0.0000 |       0.0000 |       0.0000 |       0.0000 |       0.0000 |       0.0000 |       0.0000 |       0.0000 |
dtlb.accesses                             19548350 |     19548350 |     19548350 |     19548350 |     77774004 |     77774004 |     77774004 |     77774004 |    314294744 |    314294744 |    314294744 |    314294744 |   1255641496 |   1255641496 |   1255641496 |   1255641496 |   5002405092 |   5002405092 |   5002405092 |   5002405092 |
dtlb.hits                                 19548339 |     19548339 |     19548339 |     19548339 |     77773989 |     77773989 |     77773989 |     77773989 |    314294721 |    314294721 |    314294721 |    314294721 |   1255641457 |   1255641457 |   1255641457 |   1255641457 |   5002405021 |   5002405021 |   5002405021 |   5002405021 |
dtlb.misses                                     11 |           11 |           11 |           11 |           15 |           15 |           15 |           15 |           23 |           23 |           23 |           23 |           39 |           39 |           39 |           39 |           71 |           71 |           71 |           71 |
dtlb.replacements                                0 |            0 |            0 |            0 |            0 |            0 |            0 |            0 |            0 |            0 |            0 |            0 |            0 |            0 |            0 |            0 |            0 |            0 |            0 |            0 |
dtlb.writebacks                                  0 |            0 |            0 |            0 |            0 |            0 |            0 |            0 |            0 |            0 |            0 |            0 |            0 |            0 |            0 |            0 |            0 |            0 |            0 |            0 |
dtlb.invalidations                               0 |            0 |            0 |            0 |            0 |            0 |            0 |            0 |            0 |            0 |            0 |            0 |            0 |            0 |            0 |            0 |            0 |            0 |            0 |            0 |
dtlb.miss_rate                              0.0000 |       0.0000 |       0.0000 |       0.0000 |       0.0000 |       0.0000 |       0.0000 |       0.0000 |       0.0000 |       0.0000 |       0.0000 |       0.0000 |       0.0000 |       0.0000 |       0.0000 |       0.0000 |       0.0000 |       0.0000 |       0.0000 |       0.0000 |
dtlb.repl_rate                              0.0000 |       0.0000 |       0.0000 |       0.0000 |       0.0000 |       0.0000 |       0.0000 |       0.0000 |       0.0000 |       0.0000 |       0.0000 |       0.0000 |       0.0000 |       0.0000 |       0.0000 |       0.0000 |       0.0000 |       0.0000 |       0.0000 |       0.0000 |
dtlb.wb_rate                                0.0000 |       0.0000 |       0.0000 |       0.0000 |       0.0000 |       0.0000 |       0.0000 |       0.0000 |       0.0000 |       0.0000 |       0.0000 |       0.0000 |       0.0000 |       0.0000 |       0.0000 |       0.0000 |       0.0000 |       0.0000 |       0.0000 |       0.0000 |
dtlb.inv_rate                               0.0000 |       0.0000 |       0.0000 |       0.0000 |       0.0000 |       0.0000 |       0.0000 |       0.0000 |       0.0000 |       0.0000 |       0.0000 |       0.0000 |       0.0000 |       0.0000 |       0.0000 |       0.0000 |       0.0000 |       0.0000 |       0.0000 |       0.0000 |
ld_text_base                            0x00400000 |   0x00400000 |   0x00400000 |   0x00400000 |   0x00400000 |   0x00400000 |   0x00400000 |   0x00400000 |   0x00400000 |   0x00400000 |   0x00400000 |   0x00400000 |   0x00400000 |   0x00400000 |   0x00400000 |   0x00400000 |   0x00400000 |   0x00400000 |   0x00400000 |   0x00400000 |
ld_text_size                                 72032 |        72032 |        72032 |        72032 |        72064 |        72064 |        72064 |        72064 |        72080 |        72080 |        72080 |        72080 |        72096 |        72096 |        72096 |        72096 |        72096 |        72096 |        72096 |        72096 |
ld_data_base                            0x10000000 |   0x10000000 |   0x10000000 |   0x10000000 |   0x10000000 |   0x10000000 |   0x10000000 |   0x10000000 |   0x10000000 |   0x10000000 |   0x10000000 |   0x10000000 |   0x10000000 |   0x10000000 |   0x10000000 |   0x10000000 |   0x10000000 |   0x10000000 |   0x10000000 |   0x10000000 |
ld_data_size                                  8192 |         8192 |         8192 |         8192 |         8192 |         8192 |         8192 |         8192 |         8192 |         8192 |         8192 |         8192 |         8192 |         8192 |         8192 |         8192 |         8192 |         8192 |         8192 |         8192 |
ld_stack_base                           0x7fffc000 |   0x7fffc000 |   0x7fffc000 |   0x7fffc000 |   0x7fffc000 |   0x7fffc000 |   0x7fffc000 |   0x7fffc000 |   0x7fffc000 |   0x7fffc000 |   0x7fffc000 |   0x7fffc000 |   0x7fffc000 |   0x7fffc000 |   0x7fffc000 |   0x7fffc000 |   0x7fffc000 |   0x7fffc000 |   0x7fffc000 |   0x7fffc000 |
ld_stack_size                                16384 |        16384 |        16384 |        16384 |        16384 |        16384 |        16384 |        16384 |        16384 |        16384 |        16384 |        16384 |        16384 |        16384 |        16384 |        16384 |        16384 |        16384 |        16384 |        16384 |
ld_prog_entry                           0x00400140 |   0x00400140 |   0x00400140 |   0x00400140 |   0x00400140 |   0x00400140 |   0x00400140 |   0x00400140 |   0x00400140 |   0x00400140 |   0x00400140 |   0x00400140 |   0x00400140 |   0x00400140 |   0x00400140 |   0x00400140 |   0x00400140 |   0x00400140 |   0x00400140 |   0x00400140 |
ld_environ_base                         0x7fff8000 |   0x7fff8000 |   0x7fff8000 |   0x7fff8000 |   0x7fff8000 |   0x7fff8000 |   0x7fff8000 |   0x7fff8000 |   0x7fff8000 |   0x7fff8000 |   0x7fff8000 |   0x7fff8000 |   0x7fff8000 |   0x7fff8000 |   0x7fff8000 |   0x7fff8000 |   0x7fff8000 |   0x7fff8000 |   0x7fff8000 |   0x7fff8000 |
ld_target_big_endian                             0 |            0 |            0 |            0 |            0 |            0 |            0 |            0 |            0 |            0 |            0 |            0 |            0 |            0 |            0 |            0 |            0 |            0 |            0 |            0 |
mem.page_count                                  29 |           29 |           29 |           29 |           33 |           33 |           33 |           33 |           41 |           41 |           41 |           41 |           57 |           57 |           57 |           57 |           89 |           89 |           89 |           89 |
mem.page_mem                                  116k |         116k |         116k |         116k |         132k |         132k |         132k |         132k |         164k |         164k |         164k |         164k |         228k |         228k |         228k |         228k |         356k |         356k |         356k |         356k |
mem.ptab_misses                                 29 |           29 |           29 |           29 |           33 |           33 |           33 |           33 |           41 |           41 |           41 |           41 |           57 |           57 |           57 |           57 |           89 |           89 |           89 |           89 |
mem.ptab_accesses                        235024368 |    235024368 |    235024368 |    235024368 |    933546760 |    933546760 |    933546760 |    933546760 |   3772320696 |   3772320696 |   3772320696 |   3772320696 |  15068692232 |  15068692232 |  15068692232 |  15068692232 |  60028506024 |  60028506024 |  60028506024 |  60028506024 |
mem.ptab_miss_rate                          0.0000 |       0.0000 |       0.0000 |       0.0000 |       0.0000 |       0.0000 |       0.0000 |       0.0000 |       0.0000 |       0.0000 |       0.0000 |       0.0000 |       0.0000 |       0.0000 |       0.0000 |       0.0000 |       0.0000 |       0.0000 |       0.0000 |       0.0000 |
-------------------------------------------------------------------------------------------------
sim-bpred                                     4096 |         4096 |         4096 |         4096 |         4096 |         4096 |         4096 |         8192 |         8192 |         8192 |         8192 |         8192 |         8192 |         8192 |        16384 |        16384 |        16384 |        16384 |        16384 |        16384 |        16384 |        32768 |        32768 |        32768 |        32768 |        32768 |        32768 |        32768 |        65536 |        65536 |        65536 |        65536 |        65536 |        65536 |        65536 |
-bpred bimod -bpred:bimod 512
-bpred bimod -bpred:bimod 1024
-bpred bimod -bpred:bimod 2048
-bpred 2lev -bpred:2lev 1 512 10 1
-bpred 2lev -bpred:2lev 1 1024 10 1
-bpred 2lev -bpred:2lev 1 2048 10 1
-bpred 2lev -bpred:2lev 1 4096 10 1
-------------------------------------------------------------------------------------------------
sim_num_insn                              48870221 |     48870221 |     48870221 |     48870221 |     48870221 |     48870221 |     48870221 |    194387944 |    194387944 |    194387944 |    194387944 |    194387944 |    194387944 |    194387944 |    785821034 |    785821034 |    785821034 |    785821034 |    785821034 |    785821034 |    785821034 |   3139240518 |   3139240518 |   3139240518 |   3139240518 |   3139240518 |   3139240518 |   3139240518 |  12505812168 |  12505812168 |  12505812168 |  12505812168 |  12505812168 |  12505812168 |  12505812168 |
sim_num_refs                              19531884 |     19531884 |     19531884 |     19531884 |     19531884 |     19531884 |     19531884 |     77741154 |     77741154 |     77741154 |     77741154 |     77741154 |     77741154 |     77741154 |    314229126 |    314229126 |    314229126 |    314229126 |    314229126 |    314229126 |    314229126 |   1255510342 |   1255510342 |   1255510342 |   1255510342 |   1255510342 |   1255510342 |   1255510342 |   5002142866 |   5002142866 |   5002142866 |   5002142866 |   5002142866 |   5002142866 |   5002142866 |
sim_elapsed_time                                 6 |            5 |            5 |            5 |            6 |            5 |            5 |           21 |           21 |           20 |           21 |           21 |           21 |           20 |           84 |           84 |           84 |           84 |           84 |           84 |           84 |          338 |          337 |          336 |          338 |          336 |          337 |          337 |         1345 |         1344 |         1341 |         1346 |         1339 |         1347 |         1340 |
sim_inst_rate                         8145036.8333 | 9774044.2000 | 9774044.2000 | 9774044.2000 | 8145036.8333 | 9774044.2000 | 9774044.2000 | 9256568.7619 | 9256568.7619 | 9719397.2000 | 9256568.7619 | 9256568.7619 | 9256568.7619 | 9719397.2000 | 9355012.3095 | 9355012.3095 | 9355012.3095 | 9355012.3095 | 9355012.3095 | 9355012.3095 | 9355012.3095 | 9287693.8402 | 9315253.7626 | 9342977.7321 | 9287693.8402 | 9342977.7321 | 9315253.7626 | 9315253.7626 | 9298001.6119 | 9304919.7679 | 9325736.1432 | 9291093.7355 | 9339665.5474 | 9284196.1158 | 9332695.6478 |
sim_num_branches                           6988279 |      6988279 |      6988279 |      6988279 |      6988279 |      6988279 |      6988279 |     27773081 |     27773081 |     27773081 |     27773081 |     27773081 |     27773081 |     27773081 |    112304485 |    112304485 |    112304485 |    112304485 |    112304485 |    112304485 |    112304485 |    448544227 |    448544227 |    448544227 |    448544227 |    448544227 |    448544227 |    448544227 |   1786605515 |   1786605515 |   1786605515 |   1786605515 |   1786605515 |   1786605515 |   1786605515 |
sim_IPB                                     6.9932 |       6.9932 |       6.9932 |       6.9932 |       6.9932 |       6.9932 |       6.9932 |       6.9991 |       6.9991 |       6.9991 |       6.9991 |       6.9991 |       6.9991 |       6.9991 |       6.9972 |       6.9972 |       6.9972 |       6.9972 |       6.9972 |       6.9972 |       6.9972 |       6.9987 |       6.9987 |       6.9987 |       6.9987 |       6.9987 |       6.9987 |       6.9987 |       6.9998 |       6.9998 |       6.9998 |       6.9998 |       6.9998 |       6.9998 |       6.9998 |
bpred_bimod.lookups                        6988279 |      6988279 |      6988279 |xxxxxxxxxxxxx |xxxxxxxxxxxxx |xxxxxxxxxxxxx |xxxxxxxxxxxxx |     27773081 |     27773081 |     27773081 |xxxxxxxxxxxxx |xxxxxxxxxxxxx |xxxxxxxxxxxxx |xxxxxxxxxxxxx |    112304485 |    112304485 |    112304485 |xxxxxxxxxxxxx |xxxxxxxxxxxxx |xxxxxxxxxxxxx |xxxxxxxxxxxxx |    448544227 |    448544227 |    448544227 |xxxxxxxxxxxxx |xxxxxxxxxxxxx |xxxxxxxxxxxxx |xxxxxxxxxxxxx |   1786605515 |   1786605515 |   1786605515 |
bpred_bimod.updates                        6988279 |      6988279 |      6988279 |xxxxxxxxxxxxx |xxxxxxxxxxxxx |xxxxxxxxxxxxx |xxxxxxxxxxxxx |     27773081 |     27773081 |     27773081 |xxxxxxxxxxxxx |xxxxxxxxxxxxx |xxxxxxxxxxxxx |xxxxxxxxxxxxx |    112304485 |    112304485 |    112304485 |xxxxxxxxxxxxx |xxxxxxxxxxxxx |xxxxxxxxxxxxx |xxxxxxxxxxxxx |    448544227 |    448544227 |    448544227 |xxxxxxxxxxxxx |xxxxxxxxxxxxx |xxxxxxxxxxxxx |xxxxxxxxxxxxx |   1786605515 |   1786605515 |   1786605515 |
bpred_bimod.addr_hits                      5589245 |      5589248 |      5589248 |xxxxxxxxxxxxx |xxxxxxxxxxxxx |xxxxxxxxxxxxx |xxxxxxxxxxxxx |     22193690 |     22193692 |     22193696 |xxxxxxxxxxxxx |xxxxxxxxxxxxx |xxxxxxxxxxxxx |xxxxxxxxxxxxx |     89953119 |     89953123 |     89953125 |xxxxxxxxxxxxx |xxxxxxxxxxxxx |xxxxxxxxxxxxx |xxxxxxxxxxxxx |    359256711 |    359256714 |    359256714 |xxxxxxxxxxxxx |xxxxxxxxxxxxx |xxxxxxxxxxxxx |xxxxxxxxxxxxx |   1429145776 |   1429145779 |   1429145779 |
bpred_bimod.dir_hits                       5589348 |      5589350 |      5589347 |xxxxxxxxxxxxx |xxxxxxxxxxxxx |xxxxxxxxxxxxx |xxxxxxxxxxxxx |     22193790 |     22193790 |     22193793 |xxxxxxxxxxxxx |xxxxxxxxxxxxx |xxxxxxxxxxxxx |xxxxxxxxxxxxx |     89953222 |     89953223 |     89953224 |xxxxxxxxxxxxx |xxxxxxxxxxxxx |xxxxxxxxxxxxx |xxxxxxxxxxxxx |    359256808 |    359256810 |    359256808 |xxxxxxxxxxxxx |xxxxxxxxxxxxx |xxxxxxxxxxxxx |xxxxxxxxxxxxx |   1429145874 |   1429145876 |   1429145874 |
bpred_bimod.misses                         1398931 |      1398929 |      1398932 |xxxxxxxxxxxxx |xxxxxxxxxxxxx |xxxxxxxxxxxxx |xxxxxxxxxxxxx |      5579291 |      5579291 |      5579288 |xxxxxxxxxxxxx |xxxxxxxxxxxxx |xxxxxxxxxxxxx |xxxxxxxxxxxxx |     22351263 |     22351262 |     22351261 |xxxxxxxxxxxxx |xxxxxxxxxxxxx |xxxxxxxxxxxxx |xxxxxxxxxxxxx |     89287419 |     89287417 |     89287419 |xxxxxxxxxxxxx |xxxxxxxxxxxxx |xxxxxxxxxxxxx |xxxxxxxxxxxxx |    357459641 |    357459639 |    357459641 |
bpred_bimod.jr_hits                             57 |           57 |           57 |xxxxxxxxxxxxx |xxxxxxxxxxxxx |xxxxxxxxxxxxx |xxxxxxxxxxxxx |           57 |           57 |           57 |xxxxxxxxxxxxx |xxxxxxxxxxxxx |xxxxxxxxxxxxx |xxxxxxxxxxxxx |           57 |           57 |           57 |xxxxxxxxxxxxx |xxxxxxxxxxxxx |xxxxxxxxxxxxx |xxxxxxxxxxxxx |           57 |           57 |           57 |xxxxxxxxxxxxx |xxxxxxxxxxxxx |xxxxxxxxxxxxx |xxxxxxxxxxxxx |           57 |           57 |           57 |
bpred_bimod.jr_seen                             58 |           58 |           58 |xxxxxxxxxxxxx |xxxxxxxxxxxxx |xxxxxxxxxxxxx |xxxxxxxxxxxxx |           58 |           58 |           58 |xxxxxxxxxxxxx |xxxxxxxxxxxxx |xxxxxxxxxxxxx |xxxxxxxxxxxxx |           58 |           58 |           58 |xxxxxxxxxxxxx |xxxxxxxxxxxxx |xxxxxxxxxxxxx |xxxxxxxxxxxxx |           58 |           58 |           58 |xxxxxxxxxxxxx |xxxxxxxxxxxxx |xxxxxxxxxxxxx |xxxxxxxxxxxxx |           58 |           58 |           58 |
bpred_bimod.jr_non_ras_hits.PP                   0 |            0 |            0 |xxxxxxxxxxxxx |xxxxxxxxxxxxx |xxxxxxxxxxxxx |xxxxxxxxxxxxx |            0 |            0 |            0 |xxxxxxxxxxxxx |xxxxxxxxxxxxx |xxxxxxxxxxxxx |xxxxxxxxxxxxx |            0 |            0 |            0 |xxxxxxxxxxxxx |xxxxxxxxxxxxx |xxxxxxxxxxxxx |xxxxxxxxxxxxx |            0 |            0 |            0 |xxxxxxxxxxxxx |xxxxxxxxxxxxx |xxxxxxxxxxxxx |xxxxxxxxxxxxx |            0 |            0 |            0 |
bpred_bimod.jr_non_ras_seen.PP                   0 |            0 |            0 |xxxxxxxxxxxxx |xxxxxxxxxxxxx |xxxxxxxxxxxxx |xxxxxxxxxxxxx |            0 |            0 |            0 |xxxxxxxxxxxxx |xxxxxxxxxxxxx |xxxxxxxxxxxxx |xxxxxxxxxxxxx |            0 |            0 |            0 |xxxxxxxxxxxxx |xxxxxxxxxxxxx |xxxxxxxxxxxxx |xxxxxxxxxxxxx |            0 |            0 |            0 |xxxxxxxxxxxxx |xxxxxxxxxxxxx |xxxxxxxxxxxxx |xxxxxxxxxxxxx |            0 |            0 |            0 |
bpred_bimod.bpred_addr_rate                 0.7998 |       0.7998 |       0.7998 |xxxxxxxxxxxxx |xxxxxxxxxxxxx |xxxxxxxxxxxxx |xxxxxxxxxxxxx |       0.7991 |       0.7991 |       0.7991 |xxxxxxxxxxxxx |xxxxxxxxxxxxx |xxxxxxxxxxxxx |xxxxxxxxxxxxx |       0.8010 |       0.8010 |       0.8010 |xxxxxxxxxxxxx |xxxxxxxxxxxxx |xxxxxxxxxxxxx |xxxxxxxxxxxxx |       0.8009 |       0.8009 |       0.8009 |xxxxxxxxxxxxx |xxxxxxxxxxxxx |xxxxxxxxxxxxx |xxxxxxxxxxxxx |       0.7999 |       0.7999 |       0.7999 |
bpred_bimod.bpred_dir_rate                  0.7998 |       0.7998 |       0.7998 |xxxxxxxxxxxxx |xxxxxxxxxxxxx |xxxxxxxxxxxxx |xxxxxxxxxxxxx |       0.7991 |       0.7991 |       0.7991 |xxxxxxxxxxxxx |xxxxxxxxxxxxx |xxxxxxxxxxxxx |xxxxxxxxxxxxx |       0.8010 |       0.8010 |       0.8010 |xxxxxxxxxxxxx |xxxxxxxxxxxxx |xxxxxxxxxxxxx |xxxxxxxxxxxxx |       0.8009 |       0.8009 |       0.8009 |xxxxxxxxxxxxx |xxxxxxxxxxxxx |xxxxxxxxxxxxx |xxxxxxxxxxxxx |       0.7999 |       0.7999 |       0.7999 |
bpred_bimod.bpred_jr_rate                   0.9828 |       0.9828 |       0.9828 |xxxxxxxxxxxxx |xxxxxxxxxxxxx |xxxxxxxxxxxxx |xxxxxxxxxxxxx |       0.9828 |       0.9828 |       0.9828 |xxxxxxxxxxxxx |xxxxxxxxxxxxx |xxxxxxxxxxxxx |xxxxxxxxxxxxx |       0.9828 |       0.9828 |       0.9828 |xxxxxxxxxxxxx |xxxxxxxxxxxxx |xxxxxxxxxxxxx |xxxxxxxxxxxxx |       0.9828 |       0.9828 |       0.9828 |xxxxxxxxxxxxx |xxxxxxxxxxxxx |xxxxxxxxxxxxx |xxxxxxxxxxxxx |       0.9828 |       0.9828 |       0.9828 |
bpred_bimod.bpred_jr_non_ras_rate.PP       <error: |      <error: |      <error: |xxxxxxxxxxxxx |xxxxxxxxxxxxx |xxxxxxxxxxxxx |xxxxxxxxxxxxx |      <error: |      <error: |      <error: |xxxxxxxxxxxxx |xxxxxxxxxxxxx |xxxxxxxxxxxxx |xxxxxxxxxxxxx |      <error: |      <error: |      <error: |xxxxxxxxxxxxx |xxxxxxxxxxxxx |xxxxxxxxxxxxx |xxxxxxxxxxxxx |      <error: |      <error: |      <error: |xxxxxxxxxxxxx |xxxxxxxxxxxxx |xxxxxxxxxxxxx |xxxxxxxxxxxxx |      <error: |      <error: |      <error: |
bpred_bimod.retstack_pushes                     60 |           60 |           60 |xxxxxxxxxxxxx |xxxxxxxxxxxxx |xxxxxxxxxxxxx |xxxxxxxxxxxxx |           60 |           60 |           60 |xxxxxxxxxxxxx |xxxxxxxxxxxxx |xxxxxxxxxxxxx |xxxxxxxxxxxxx |           60 |           60 |           60 |xxxxxxxxxxxxx |xxxxxxxxxxxxx |xxxxxxxxxxxxx |xxxxxxxxxxxxx |           60 |           60 |           60 |xxxxxxxxxxxxx |xxxxxxxxxxxxx |xxxxxxxxxxxxx |xxxxxxxxxxxxx |           60 |           60 |           60 |
bpred_bimod.retstack_pops                       58 |           58 |           58 |xxxxxxxxxxxxx |xxxxxxxxxxxxx |xxxxxxxxxxxxx |xxxxxxxxxxxxx |           58 |           58 |           58 |xxxxxxxxxxxxx |xxxxxxxxxxxxx |xxxxxxxxxxxxx |xxxxxxxxxxxxx |           58 |           58 |           58 |xxxxxxxxxxxxx |xxxxxxxxxxxxx |xxxxxxxxxxxxx |xxxxxxxxxxxxx |           58 |           58 |           58 |xxxxxxxxxxxxx |xxxxxxxxxxxxx |xxxxxxxxxxxxx |xxxxxxxxxxxxx |           58 |           58 |           58 |
bpred_bimod.used_ras.PP                         58 |           58 |           58 |xxxxxxxxxxxxx |xxxxxxxxxxxxx |xxxxxxxxxxxxx |xxxxxxxxxxxxx |           58 |           58 |           58 |xxxxxxxxxxxxx |xxxxxxxxxxxxx |xxxxxxxxxxxxx |xxxxxxxxxxxxx |           58 |           58 |           58 |xxxxxxxxxxxxx |xxxxxxxxxxxxx |xxxxxxxxxxxxx |xxxxxxxxxxxxx |           58 |           58 |           58 |xxxxxxxxxxxxx |xxxxxxxxxxxxx |xxxxxxxxxxxxx |xxxxxxxxxxxxx |           58 |           58 |           58 |
bpred_bimod.ras_hits.PP                         57 |           57 |           57 |xxxxxxxxxxxxx |xxxxxxxxxxxxx |xxxxxxxxxxxxx |xxxxxxxxxxxxx |           57 |           57 |           57 |xxxxxxxxxxxxx |xxxxxxxxxxxxx |xxxxxxxxxxxxx |xxxxxxxxxxxxx |           57 |           57 |           57 |xxxxxxxxxxxxx |xxxxxxxxxxxxx |xxxxxxxxxxxxx |xxxxxxxxxxxxx |           57 |           57 |           57 |xxxxxxxxxxxxx |xxxxxxxxxxxxx |xxxxxxxxxxxxx |xxxxxxxxxxxxx |           57 |           57 |           57 |
bpred_bimod.ras_rate.PP                     0.9828 |       0.9828 |       0.9828 |xxxxxxxxxxxxx |xxxxxxxxxxxxx |xxxxxxxxxxxxx |xxxxxxxxxxxxx |       0.9828 |       0.9828 |       0.9828 |xxxxxxxxxxxxx |xxxxxxxxxxxxx |xxxxxxxxxxxxx |xxxxxxxxxxxxx |       0.9828 |       0.9828 |       0.9828 |xxxxxxxxxxxxx |xxxxxxxxxxxxx |xxxxxxxxxxxxx |xxxxxxxxxxxxx |       0.9828 |       0.9828 |       0.9828 |xxxxxxxxxxxxx |xxxxxxxxxxxxx |xxxxxxxxxxxxx |xxxxxxxxxxxxx |       0.9828 |       0.9828 |       0.9828 |
bpred_2lev.lookups                   xxxxxxxxxxxxx |xxxxxxxxxxxxx |xxxxxxxxxxxxx |      6988279 |      6988279 |      6988279 |      6988279 |xxxxxxxxxxxxx |xxxxxxxxxxxxx |xxxxxxxxxxxxx |     27773081 |     27773081 |     27773081 |     27773081 |xxxxxxxxxxxxx |xxxxxxxxxxxxx |xxxxxxxxxxxxx |    112304485 |    112304485 |    112304485 |    112304485 |xxxxxxxxxxxxx |xxxxxxxxxxxxx |xxxxxxxxxxxxx |    448544227 |    448544227 |    448544227 |    448544227 |xxxxxxxxxxxxx |xxxxxxxxxxxxx |xxxxxxxxxxxxx |   1786605515 |   1786605515 |   1786605515 |   1786605515 |
bpred_2lev.updates                   xxxxxxxxxxxxx |xxxxxxxxxxxxx |xxxxxxxxxxxxx |      6988279 |      6988279 |      6988279 |      6988279 |xxxxxxxxxxxxx |xxxxxxxxxxxxx |xxxxxxxxxxxxx |     27773081 |     27773081 |     27773081 |     27773081 |xxxxxxxxxxxxx |xxxxxxxxxxxxx |xxxxxxxxxxxxx |    112304485 |    112304485 |    112304485 |    112304485 |xxxxxxxxxxxxx |xxxxxxxxxxxxx |xxxxxxxxxxxxx |    448544227 |    448544227 |    448544227 |    448544227 |xxxxxxxxxxxxx |xxxxxxxxxxxxx |xxxxxxxxxxxxx |   1786605515 |   1786605515 |   1786605515 |   1786605515 |
bpred_2lev.addr_hits                 xxxxxxxxxxxxx |xxxxxxxxxxxxx |xxxxxxxxxxxxx |      5093224 |      5297489 |      5468785 |      5549522 |xxxxxxxxxxxxx |xxxxxxxxxxxxx |xxxxxxxxxxxxx |     20439589 |     20998099 |     21529042 |     21802105 |xxxxxxxxxxxxx |xxxxxxxxxxxxx |xxxxxxxxxxxxx |     84169436 |     85601795 |     87133425 |     87927404 |xxxxxxxxxxxxx |xxxxxxxxxxxxx |xxxxxxxxxxxxx |    340022846 |    345472993 |    350349429 |    352426126 |xxxxxxxxxxxxx |xxxxxxxxxxxxx |xxxxxxxxxxxxx |   1362932985 |   1383587292 |   1403054430 |   1409742935 |
bpred_2lev.dir_hits                  xxxxxxxxxxxxx |xxxxxxxxxxxxx |xxxxxxxxxxxxx |      5093352 |      5297607 |      5468898 |      5549639 |xxxxxxxxxxxxx |xxxxxxxxxxxxx |xxxxxxxxxxxxx |     20439714 |     20998213 |     21529152 |     21802216 |xxxxxxxxxxxxx |xxxxxxxxxxxxx |xxxxxxxxxxxxx |     84169561 |     85601920 |     87133538 |     87927513 |xxxxxxxxxxxxx |xxxxxxxxxxxxx |xxxxxxxxxxxxx |    340022968 |    345473111 |    350349539 |    352426233 |xxxxxxxxxxxxx |xxxxxxxxxxxxx |xxxxxxxxxxxxx |   1362933098 |   1383587411 |   1403054545 |   1409743047 |
bpred_2lev.misses                    xxxxxxxxxxxxx |xxxxxxxxxxxxx |xxxxxxxxxxxxx |      1894927 |      1690672 |      1519381 |      1438640 |xxxxxxxxxxxxx |xxxxxxxxxxxxx |xxxxxxxxxxxxx |      7333367 |      6774868 |      6243929 |      5970865 |xxxxxxxxxxxxx |xxxxxxxxxxxxx |xxxxxxxxxxxxx |     28134924 |     26702565 |     25170947 |     24376972 |xxxxxxxxxxxxx |xxxxxxxxxxxxx |xxxxxxxxxxxxx |    108521259 |    103071116 |     98194688 |     96117994 |xxxxxxxxxxxxx |xxxxxxxxxxxxx |xxxxxxxxxxxxx |    423672417 |    403018104 |    383550970 |    376862468 |
bpred_2lev.jr_hits                   xxxxxxxxxxxxx |xxxxxxxxxxxxx |xxxxxxxxxxxxx |           57 |           57 |           57 |           57 |xxxxxxxxxxxxx |xxxxxxxxxxxxx |xxxxxxxxxxxxx |           57 |           57 |           57 |           57 |xxxxxxxxxxxxx |xxxxxxxxxxxxx |xxxxxxxxxxxxx |           57 |           57 |           57 |           57 |xxxxxxxxxxxxx |xxxxxxxxxxxxx |xxxxxxxxxxxxx |           57 |           57 |           57 |           57 |xxxxxxxxxxxxx |xxxxxxxxxxxxx |xxxxxxxxxxxxx |           57 |           57 |           57 |           57 |
bpred_2lev.jr_seen                   xxxxxxxxxxxxx |xxxxxxxxxxxxx |xxxxxxxxxxxxx |           58 |           58 |           58 |           58 |xxxxxxxxxxxxx |xxxxxxxxxxxxx |xxxxxxxxxxxxx |           58 |           58 |           58 |           58 |xxxxxxxxxxxxx |xxxxxxxxxxxxx |xxxxxxxxxxxxx |           58 |           58 |           58 |           58 |xxxxxxxxxxxxx |xxxxxxxxxxxxx |xxxxxxxxxxxxx |           58 |           58 |           58 |           58 |xxxxxxxxxxxxx |xxxxxxxxxxxxx |xxxxxxxxxxxxx |           58 |           58 |           58 |           58 |
bpred_2lev.jr_non_ras_hits.PP        xxxxxxxxxxxxx |xxxxxxxxxxxxx |xxxxxxxxxxxxx |            0 |            0 |            0 |            0 |xxxxxxxxxxxxx |xxxxxxxxxxxxx |xxxxxxxxxxxxx |            0 |            0 |            0 |            0 |xxxxxxxxxxxxx |xxxxxxxxxxxxx |xxxxxxxxxxxxx |            0 |            0 |            0 |            0 |xxxxxxxxxxxxx |xxxxxxxxxxxxx |xxxxxxxxxxxxx |            0 |            0 |            0 |            0 |xxxxxxxxxxxxx |xxxxxxxxxxxxx |xxxxxxxxxxxxx |            0 |            0 |            0 |            0 |
bpred_2lev.jr_non_ras_seen.PP        xxxxxxxxxxxxx |xxxxxxxxxxxxx |xxxxxxxxxxxxx |            0 |            0 |            0 |            0 |xxxxxxxxxxxxx |xxxxxxxxxxxxx |xxxxxxxxxxxxx |            0 |            0 |            0 |            0 |xxxxxxxxxxxxx |xxxxxxxxxxxxx |xxxxxxxxxxxxx |            0 |            0 |            0 |            0 |xxxxxxxxxxxxx |xxxxxxxxxxxxx |xxxxxxxxxxxxx |            0 |            0 |            0 |            0 |xxxxxxxxxxxxx |xxxxxxxxxxxxx |xxxxxxxxxxxxx |            0 |            0 |            0 |            0 |
bpred_2lev.bpred_addr_rate           xxxxxxxxxxxxx |xxxxxxxxxxxxx |xxxxxxxxxxxxx |       0.7288 |       0.7581 |       0.7826 |       0.7941 |xxxxxxxxxxxxx |xxxxxxxxxxxxx |xxxxxxxxxxxxx |       0.7359 |       0.7561 |       0.7752 |       0.7850 |xxxxxxxxxxxxx |xxxxxxxxxxxxx |xxxxxxxxxxxxx |       0.7495 |       0.7622 |       0.7759 |       0.7829 |xxxxxxxxxxxxx |xxxxxxxxxxxxx |xxxxxxxxxxxxx |       0.7581 |       0.7702 |       0.7811 |       0.7857 |xxxxxxxxxxxxx |xxxxxxxxxxxxx |xxxxxxxxxxxxx |       0.7629 |       0.7744 |       0.7853 |       0.7891 |
bpred_2lev.bpred_dir_rate            xxxxxxxxxxxxx |xxxxxxxxxxxxx |xxxxxxxxxxxxx |       0.7288 |       0.7581 |       0.7826 |       0.7941 |xxxxxxxxxxxxx |xxxxxxxxxxxxx |xxxxxxxxxxxxx |       0.7360 |       0.7561 |       0.7752 |       0.7850 |xxxxxxxxxxxxx |xxxxxxxxxxxxx |xxxxxxxxxxxxx |       0.7495 |       0.7622 |       0.7759 |       0.7829 |xxxxxxxxxxxxx |xxxxxxxxxxxxx |xxxxxxxxxxxxx |       0.7581 |       0.7702 |       0.7811 |       0.7857 |xxxxxxxxxxxxx |xxxxxxxxxxxxx |xxxxxxxxxxxxx |       0.7629 |       0.7744 |       0.7853 |       0.7891 |
bpred_2lev.bpred_jr_rate             xxxxxxxxxxxxx |xxxxxxxxxxxxx |xxxxxxxxxxxxx |       0.9828 |       0.9828 |       0.9828 |       0.9828 |xxxxxxxxxxxxx |xxxxxxxxxxxxx |xxxxxxxxxxxxx |       0.9828 |       0.9828 |       0.9828 |       0.9828 |xxxxxxxxxxxxx |xxxxxxxxxxxxx |xxxxxxxxxxxxx |       0.9828 |       0.9828 |       0.9828 |       0.9828 |xxxxxxxxxxxxx |xxxxxxxxxxxxx |xxxxxxxxxxxxx |       0.9828 |       0.9828 |       0.9828 |       0.9828 |xxxxxxxxxxxxx |xxxxxxxxxxxxx |xxxxxxxxxxxxx |       0.9828 |       0.9828 |       0.9828 |       0.9828 |
bpred_2lev.bpred_jr_non_ras_rate.PP  xxxxxxxxxxxxx |xxxxxxxxxxxxx |xxxxxxxxxxxxx |      <error: |      <error: |      <error: |      <error: |xxxxxxxxxxxxx |xxxxxxxxxxxxx |xxxxxxxxxxxxx |      <error: |      <error: |      <error: |      <error: |xxxxxxxxxxxxx |xxxxxxxxxxxxx |xxxxxxxxxxxxx |      <error: |      <error: |      <error: |      <error: |xxxxxxxxxxxxx |xxxxxxxxxxxxx |xxxxxxxxxxxxx |      <error: |      <error: |      <error: |      <error: |xxxxxxxxxxxxx |xxxxxxxxxxxxx |xxxxxxxxxxxxx |      <error: |      <error: |      <error: |      <error: |
bpred_2lev.retstack_pushes           xxxxxxxxxxxxx |xxxxxxxxxxxxx |xxxxxxxxxxxxx |           60 |           60 |           60 |           60 |xxxxxxxxxxxxx |xxxxxxxxxxxxx |xxxxxxxxxxxxx |           60 |           60 |           60 |           60 |xxxxxxxxxxxxx |xxxxxxxxxxxxx |xxxxxxxxxxxxx |           60 |           60 |           60 |           60 |xxxxxxxxxxxxx |xxxxxxxxxxxxx |xxxxxxxxxxxxx |           60 |           60 |           60 |           60 |xxxxxxxxxxxxx |xxxxxxxxxxxxx |xxxxxxxxxxxxx |           60 |           60 |           60 |           60 |
bpred_2lev.retstack_pops             xxxxxxxxxxxxx |xxxxxxxxxxxxx |xxxxxxxxxxxxx |           58 |           58 |           58 |           58 |xxxxxxxxxxxxx |xxxxxxxxxxxxx |xxxxxxxxxxxxx |           58 |           58 |           58 |           58 |xxxxxxxxxxxxx |xxxxxxxxxxxxx |xxxxxxxxxxxxx |           58 |           58 |           58 |           58 |xxxxxxxxxxxxx |xxxxxxxxxxxxx |xxxxxxxxxxxxx |           58 |           58 |           58 |           58 |xxxxxxxxxxxxx |xxxxxxxxxxxxx |xxxxxxxxxxxxx |           58 |           58 |           58 |           58 |
bpred_2lev.used_ras.PP               xxxxxxxxxxxxx |xxxxxxxxxxxxx |xxxxxxxxxxxxx |           58 |           58 |           58 |           58 |xxxxxxxxxxxxx |xxxxxxxxxxxxx |xxxxxxxxxxxxx |           58 |           58 |           58 |           58 |xxxxxxxxxxxxx |xxxxxxxxxxxxx |xxxxxxxxxxxxx |           58 |           58 |           58 |           58 |xxxxxxxxxxxxx |xxxxxxxxxxxxx |xxxxxxxxxxxxx |           58 |           58 |           58 |           58 |xxxxxxxxxxxxx |xxxxxxxxxxxxx |xxxxxxxxxxxxx |           58 |           58 |           58 |           58 |
bpred_2lev.ras_hits.PP               xxxxxxxxxxxxx |xxxxxxxxxxxxx |xxxxxxxxxxxxx |           57 |           57 |           57 |           57 |xxxxxxxxxxxxx |xxxxxxxxxxxxx |xxxxxxxxxxxxx |           57 |           57 |           57 |           57 |xxxxxxxxxxxxx |xxxxxxxxxxxxx |xxxxxxxxxxxxx |           57 |           57 |           57 |           57 |xxxxxxxxxxxxx |xxxxxxxxxxxxx |xxxxxxxxxxxxx |           57 |           57 |           57 |           57 |xxxxxxxxxxxxx |xxxxxxxxxxxxx |xxxxxxxxxxxxx |           57 |           57 |           57 |           57 |
bpred_2lev.ras_rate.PP               xxxxxxxxxxxxx |xxxxxxxxxxxxx |xxxxxxxxxxxxx |       0.9828 |       0.9828 |       0.9828 |       0.9828 |xxxxxxxxxxxxx |xxxxxxxxxxxxx |xxxxxxxxxxxxx |       0.9828 |       0.9828 |       0.9828 |       0.9828 |xxxxxxxxxxxxx |xxxxxxxxxxxxx |xxxxxxxxxxxxx |       0.9828 |       0.9828 |       0.9828 |       0.9828 |xxxxxxxxxxxxx |xxxxxxxxxxxxx |xxxxxxxxxxxxx |       0.9828 |       0.9828 |       0.9828 |       0.9828 |xxxxxxxxxxxxx |xxxxxxxxxxxxx |xxxxxxxxxxxxx |       0.9828 |       0.9828 |       0.9828 |       0.9828 |

Command list: 
	sslittle-na-sstrix-gcc -Wall -O3 -funroll-loops -finline-functions  -DRANDOM_SIZE=4096 -DOFFSET=1 -DSORT=on2_shakersort2 sorts/on2_shakersort2413174354.c simpleMain.c -o on2_shakersort21174403796
	sim-cache -cache:dl1 dl1:256:32:1:l -cache:dl2 dl2:131072:32:1:l -cache:il1 il1:256:32:1:l -cache:il2 dl2 on2_shakersort21174403796
	sim-cache -cache:dl1 dl1:256:32:1:l -cache:dl2 dl2:65536:32:1:l -cache:il1 il1:256:32:1:l -cache:il2 dl2 on2_shakersort21174403796
	sim-cache -cache:dl1 dl1:1:32:256:l -cache:dl2 dl2:1:32:131072:l -cache:il1 il1:1:32:256:l -cache:il2 dl2 on2_shakersort21174403796
	sim-cache -cache:dl1 dl1:1:32:256:l -cache:dl2 dl2:1:32:65536:l -cache:il1 il1:1:32:256:l -cache:il2 dl2 on2_shakersort21174403796
	sim-bpred -bpred bimod -bpred:bimod 512 on2_shakersort21174403796
	sim-bpred -bpred bimod -bpred:bimod 1024 on2_shakersort21174403796
	sim-bpred -bpred bimod -bpred:bimod 2048 on2_shakersort21174403796
	sim-bpred -bpred 2lev -bpred:2lev 1 512 10 1 on2_shakersort21174403796
	sim-bpred -bpred 2lev -bpred:2lev 1 1024 10 1 on2_shakersort21174403796
	sim-bpred -bpred 2lev -bpred:2lev 1 2048 10 1 on2_shakersort21174403796
	sim-bpred -bpred 2lev -bpred:2lev 1 4096 10 1 on2_shakersort21174403796
	sslittle-na-sstrix-gcc -Wall -O3 -funroll-loops -finline-functions  -DRANDOM_SIZE=8192 -DOFFSET=1 -DSORT=on2_shakersort2 sorts/on2_shakersort2413174354.c simpleMain.c -o on2_shakersort21174403796
	sim-cache -cache:dl1 dl1:256:32:1:l -cache:dl2 dl2:131072:32:1:l -cache:il1 il1:256:32:1:l -cache:il2 dl2 on2_shakersort21174403796
	sim-cache -cache:dl1 dl1:256:32:1:l -cache:dl2 dl2:65536:32:1:l -cache:il1 il1:256:32:1:l -cache:il2 dl2 on2_shakersort21174403796
	sim-cache -cache:dl1 dl1:1:32:256:l -cache:dl2 dl2:1:32:131072:l -cache:il1 il1:1:32:256:l -cache:il2 dl2 on2_shakersort21174403796
	sim-cache -cache:dl1 dl1:1:32:256:l -cache:dl2 dl2:1:32:65536:l -cache:il1 il1:1:32:256:l -cache:il2 dl2 on2_shakersort21174403796
	sim-bpred -bpred bimod -bpred:bimod 512 on2_shakersort21174403796
	sim-bpred -bpred bimod -bpred:bimod 1024 on2_shakersort21174403796
	sim-bpred -bpred bimod -bpred:bimod 2048 on2_shakersort21174403796
	sim-bpred -bpred 2lev -bpred:2lev 1 512 10 1 on2_shakersort21174403796
	sim-bpred -bpred 2lev -bpred:2lev 1 1024 10 1 on2_shakersort21174403796
	sim-bpred -bpred 2lev -bpred:2lev 1 2048 10 1 on2_shakersort21174403796
	sim-bpred -bpred 2lev -bpred:2lev 1 4096 10 1 on2_shakersort21174403796
	sslittle-na-sstrix-gcc -Wall -O3 -funroll-loops -finline-functions  -DRANDOM_SIZE=16384 -DOFFSET=1 -DSORT=on2_shakersort2 sorts/on2_shakersort2413174354.c simpleMain.c -o on2_shakersort21174403796
	sim-cache -cache:dl1 dl1:256:32:1:l -cache:dl2 dl2:131072:32:1:l -cache:il1 il1:256:32:1:l -cache:il2 dl2 on2_shakersort21174403796
	sim-cache -cache:dl1 dl1:256:32:1:l -cache:dl2 dl2:65536:32:1:l -cache:il1 il1:256:32:1:l -cache:il2 dl2 on2_shakersort21174403796
	sim-cache -cache:dl1 dl1:1:32:256:l -cache:dl2 dl2:1:32:131072:l -cache:il1 il1:1:32:256:l -cache:il2 dl2 on2_shakersort21174403796
	sim-cache -cache:dl1 dl1:1:32:256:l -cache:dl2 dl2:1:32:65536:l -cache:il1 il1:1:32:256:l -cache:il2 dl2 on2_shakersort21174403796
	sim-bpred -bpred bimod -bpred:bimod 512 on2_shakersort21174403796
	sim-bpred -bpred bimod -bpred:bimod 1024 on2_shakersort21174403796
	sim-bpred -bpred bimod -bpred:bimod 2048 on2_shakersort21174403796
	sim-bpred -bpred 2lev -bpred:2lev 1 512 10 1 on2_shakersort21174403796
	sim-bpred -bpred 2lev -bpred:2lev 1 1024 10 1 on2_shakersort21174403796
	sim-bpred -bpred 2lev -bpred:2lev 1 2048 10 1 on2_shakersort21174403796
	sim-bpred -bpred 2lev -bpred:2lev 1 4096 10 1 on2_shakersort21174403796
	sslittle-na-sstrix-gcc -Wall -O3 -funroll-loops -finline-functions  -DRANDOM_SIZE=32768 -DOFFSET=1 -DSORT=on2_shakersort2 sorts/on2_shakersort2413174354.c simpleMain.c -o on2_shakersort21174403796
	sim-cache -cache:dl1 dl1:256:32:1:l -cache:dl2 dl2:131072:32:1:l -cache:il1 il1:256:32:1:l -cache:il2 dl2 on2_shakersort21174403796
	sim-cache -cache:dl1 dl1:256:32:1:l -cache:dl2 dl2:65536:32:1:l -cache:il1 il1:256:32:1:l -cache:il2 dl2 on2_shakersort21174403796
	sim-cache -cache:dl1 dl1:1:32:256:l -cache:dl2 dl2:1:32:131072:l -cache:il1 il1:1:32:256:l -cache:il2 dl2 on2_shakersort21174403796
	sim-cache -cache:dl1 dl1:1:32:256:l -cache:dl2 dl2:1:32:65536:l -cache:il1 il1:1:32:256:l -cache:il2 dl2 on2_shakersort21174403796
	sim-bpred -bpred bimod -bpred:bimod 512 on2_shakersort21174403796
	sim-bpred -bpred bimod -bpred:bimod 1024 on2_shakersort21174403796
	sim-bpred -bpred bimod -bpred:bimod 2048 on2_shakersort21174403796
	sim-bpred -bpred 2lev -bpred:2lev 1 512 10 1 on2_shakersort21174403796
	sim-bpred -bpred 2lev -bpred:2lev 1 1024 10 1 on2_shakersort21174403796
	sim-bpred -bpred 2lev -bpred:2lev 1 2048 10 1 on2_shakersort21174403796
	sim-bpred -bpred 2lev -bpred:2lev 1 4096 10 1 on2_shakersort21174403796
	sslittle-na-sstrix-gcc -Wall -O3 -funroll-loops -finline-functions  -DRANDOM_SIZE=65536 -DOFFSET=1 -DSORT=on2_shakersort2 sorts/on2_shakersort2413174354.c simpleMain.c -o on2_shakersort21174403796
	sim-cache -cache:dl1 dl1:256:32:1:l -cache:dl2 dl2:131072:32:1:l -cache:il1 il1:256:32:1:l -cache:il2 dl2 on2_shakersort21174403796
	sim-cache -cache:dl1 dl1:256:32:1:l -cache:dl2 dl2:65536:32:1:l -cache:il1 il1:256:32:1:l -cache:il2 dl2 on2_shakersort21174403796
	sim-cache -cache:dl1 dl1:1:32:256:l -cache:dl2 dl2:1:32:131072:l -cache:il1 il1:1:32:256:l -cache:il2 dl2 on2_shakersort21174403796
	sim-cache -cache:dl1 dl1:1:32:256:l -cache:dl2 dl2:1:32:65536:l -cache:il1 il1:1:32:256:l -cache:il2 dl2 on2_shakersort21174403796
	sim-bpred -bpred bimod -bpred:bimod 512 on2_shakersort21174403796
	sim-bpred -bpred bimod -bpred:bimod 1024 on2_shakersort21174403796
	sim-bpred -bpred bimod -bpred:bimod 2048 on2_shakersort21174403796
	sim-bpred -bpred 2lev -bpred:2lev 1 512 10 1 on2_shakersort21174403796
	sim-bpred -bpred 2lev -bpred:2lev 1 1024 10 1 on2_shakersort21174403796
	sim-bpred -bpred 2lev -bpred:2lev 1 2048 10 1 on2_shakersort21174403796
	sim-bpred -bpred 2lev -bpred:2lev 1 4096 10 1 on2_shakersort21174403796
