Mon Aug  8 09:23:52 2005
Run as: "./do_simple -c random.org9 -o 9 -M 65536 on2_shakersort2"
-------------------------------------------------------------------------------------------------
sim-cache                                     4096 |         4096 |         4096 |         4096 |         8192 |         8192 |         8192 |         8192 |        16384 |        16384 |        16384 |        16384 |        32768 |        32768 |        32768 |        32768 |        65536 |        65536 |        65536 |        65536 |
-cache:dl1 dl1:256:32:1:l -cache:dl2 dl2:131072:32:1:l -cache:il1 il1:256:32:1:l -cache:il2 dl2
-cache:dl1 dl1:256:32:1:l -cache:dl2 dl2:65536:32:1:l -cache:il1 il1:256:32:1:l -cache:il2 dl2
-cache:dl1 dl1:1:32:256:l -cache:dl2 dl2:1:32:131072:l -cache:il1 il1:1:32:256:l -cache:il2 dl2
-cache:dl1 dl1:1:32:256:l -cache:dl2 dl2:1:32:65536:l -cache:il1 il1:1:32:256:l -cache:il2 dl2
-------------------------------------------------------------------------------------------------
sim_num_insn                              49286071 |     49286071 |     49286071 |     49286071 |    196994276 |    196994276 |    196994276 |    196994276 |    779618178 |    779618178 |    779618178 |    779618178 |   3111802322 |   3111802322 |   3111802322 |   3111802322 |  12439492465 |  12439492465 |  12439492465 |  12439492465 |
sim_num_refs                              19708470 |     19708470 |     19708470 |     19708470 |     78714836 |     78714836 |     78714836 |     78714836 |    311630610 |    311630610 |    311630610 |    311630610 |   1244394252 |   1244394252 |   1244394252 |   1244394252 |   4974233254 |   4974233254 |   4974233254 |   4974233254 |
sim_elapsed_time                                18 |           18 |           21 |           17 |           66 |           66 |           64 |           60 |          228 |          227 |          235 |          228 |          908 |          910 |          907 |          891 |         3627 |         3637 |         3588 |         3552 |
sim_inst_rate                         2738115.0556 | 2738115.0556 | 2346955.7619 | 2899180.6471 | 2984761.7576 | 2984761.7576 | 3078035.5625 | 3283237.9333 | 3419377.9737 | 3434441.3128 | 3317524.1617 | 3419377.9737 | 3427095.0683 | 3419562.9912 | 3430873.5634 | 3492482.9652 | 3429691.8845 | 3420261.8820 | 3466971.1441 | 3502109.3651 |
il1.accesses                              49286071 |     49286071 |     49286071 |     49286071 |    196994276 |    196994276 |    196994276 |    196994276 |    779618178 |    779618178 |    779618178 |    779618178 |   3111802322 |   3111802322 |   3111802322 |   3111802322 |  12439492465 |  12439492465 |  12439492465 |  12439492465 |
il1.hits                                  49285675 |     49285675 |     49285731 |     49285731 |    196993880 |    196993880 |    196993936 |    196993936 |    779617774 |    779617774 |    779617834 |    779617834 |   3111801926 |   3111801926 |   3111801980 |   3111801980 |  12439492069 |  12439492069 |  12439492123 |  12439492123 |
il1.misses                                     396 |          396 |          340 |          340 |          396 |          396 |          340 |          340 |          404 |          404 |          344 |          344 |          396 |          396 |          342 |          342 |          396 |          396 |          342 |          342 |
il1.replacements                               209 |          209 |           84 |           84 |          208 |          208 |           84 |           84 |          212 |          212 |           88 |           88 |          207 |          207 |           86 |           86 |          207 |          207 |           86 |           86 |
il1.writebacks                                   0 |            0 |            0 |            0 |            0 |            0 |            0 |            0 |            0 |            0 |            0 |            0 |            0 |            0 |            0 |            0 |            0 |            0 |            0 |            0 |
il1.invalidations                                0 |            0 |            0 |            0 |            0 |            0 |            0 |            0 |            0 |            0 |            0 |            0 |            0 |            0 |            0 |            0 |            0 |            0 |            0 |            0 |
il1.miss_rate                               0.0000 |       0.0000 |       0.0000 |       0.0000 |       0.0000 |       0.0000 |       0.0000 |       0.0000 |       0.0000 |       0.0000 |       0.0000 |       0.0000 |       0.0000 |       0.0000 |       0.0000 |       0.0000 |       0.0000 |       0.0000 |       0.0000 |       0.0000 |
il1.repl_rate                               0.0000 |       0.0000 |       0.0000 |       0.0000 |       0.0000 |       0.0000 |       0.0000 |       0.0000 |       0.0000 |       0.0000 |       0.0000 |       0.0000 |       0.0000 |       0.0000 |       0.0000 |       0.0000 |       0.0000 |       0.0000 |       0.0000 |       0.0000 |
il1.wb_rate                                 0.0000 |       0.0000 |       0.0000 |       0.0000 |       0.0000 |       0.0000 |       0.0000 |       0.0000 |       0.0000 |       0.0000 |       0.0000 |       0.0000 |       0.0000 |       0.0000 |       0.0000 |       0.0000 |       0.0000 |       0.0000 |       0.0000 |       0.0000 |
il1.inv_rate                                0.0000 |       0.0000 |       0.0000 |       0.0000 |       0.0000 |       0.0000 |       0.0000 |       0.0000 |       0.0000 |       0.0000 |       0.0000 |       0.0000 |       0.0000 |       0.0000 |       0.0000 |       0.0000 |       0.0000 |       0.0000 |       0.0000 |       0.0000 |
dl1.accesses                              19724936 |     19724936 |     19724936 |     19724936 |     78747686 |     78747686 |     78747686 |     78747686 |    311696228 |    311696228 |    311696228 |    311696228 |   1244525406 |   1244525406 |   1244525406 |   1244525406 |   4974495480 |   4974495480 |   4974495480 |   4974495480 |
dl1.hits                                  19500554 |     19500554 |     19500554 |     19500554 |     76959353 |     76959353 |     76959353 |     76959353 |    302606853 |    302606853 |    302606853 |    302606853 |   1204193522 |   1204193522 |   1204193522 |   1204193522 |   4804991235 |   4804991235 |   4804991235 |   4804991235 |
dl1.misses                                  224382 |       224382 |       224382 |       224382 |      1788333 |      1788333 |      1788333 |      1788333 |      9089375 |      9089375 |      9089375 |      9089375 |     40331884 |     40331884 |     40331884 |     40331884 |    169504245 |    169504245 |    169504245 |    169504245 |
dl1.replacements                            224126 |       224126 |       224126 |       224126 |      1788077 |      1788077 |      1788077 |      1788077 |      9089119 |      9089119 |      9089119 |      9089119 |     40331628 |     40331628 |     40331628 |     40331628 |    169503989 |    169503989 |    169503989 |    169503989 |
dl1.writebacks                              224051 |       224051 |       224051 |       224051 |      1787787 |      1787787 |      1787787 |      1787787 |      9088187 |      9088187 |      9088187 |      9088187 |     40315424 |     40315424 |     40315424 |     40315424 |    169354441 |    169354441 |    169354441 |    169354441 |
dl1.invalidations                                0 |            0 |            0 |            0 |            0 |            0 |            0 |            0 |            0 |            0 |            0 |            0 |            0 |            0 |            0 |            0 |            0 |            0 |            0 |            0 |
dl1.miss_rate                               0.0114 |       0.0114 |       0.0114 |       0.0114 |       0.0227 |       0.0227 |       0.0227 |       0.0227 |       0.0292 |       0.0292 |       0.0292 |       0.0292 |       0.0324 |       0.0324 |       0.0324 |       0.0324 |       0.0341 |       0.0341 |       0.0341 |       0.0341 |
dl1.repl_rate                               0.0114 |       0.0114 |       0.0114 |       0.0114 |       0.0227 |       0.0227 |       0.0227 |       0.0227 |       0.0292 |       0.0292 |       0.0292 |       0.0292 |       0.0324 |       0.0324 |       0.0324 |       0.0324 |       0.0341 |       0.0341 |       0.0341 |       0.0341 |
dl1.wb_rate                                 0.0114 |       0.0114 |       0.0114 |       0.0114 |       0.0227 |       0.0227 |       0.0227 |       0.0227 |       0.0292 |       0.0292 |       0.0292 |       0.0292 |       0.0324 |       0.0324 |       0.0324 |       0.0324 |       0.0340 |       0.0340 |       0.0340 |       0.0340 |
dl1.inv_rate                                0.0000 |       0.0000 |       0.0000 |       0.0000 |       0.0000 |       0.0000 |       0.0000 |       0.0000 |       0.0000 |       0.0000 |       0.0000 |       0.0000 |       0.0000 |       0.0000 |       0.0000 |       0.0000 |       0.0000 |       0.0000 |       0.0000 |       0.0000 |
dl2.accesses                                448829 |       448829 |       448773 |       448773 |      3576516 |      3576516 |      3576460 |      3576460 |     18177966 |     18177966 |     18177906 |     18177906 |     80647704 |     80647704 |     80647650 |     80647650 |    338859082 |    338859082 |    338859028 |    338859028 |
dl2.hits                                    447564 |       447564 |       447513 |       447513 |      3574739 |      3574739 |      3574688 |      3574688 |     18175158 |     18175158 |     18175103 |     18175103 |     80642853 |     80642853 |     80642804 |     80642804 |    338850135 |    338850135 |    338850086 |    338850086 |
dl2.misses                                    1265 |         1265 |         1260 |         1260 |         1777 |         1777 |         1772 |         1772 |         2808 |         2808 |         2803 |         2803 |         4851 |         4851 |         4846 |         4846 |         8947 |         8947 |         8942 |         8942 |
dl2.replacements                                64 |           64 |            0 |            0 |           64 |           64 |            0 |            0 |           63 |           63 |            0 |            0 |           64 |           64 |            0 |            0 |           64 |           64 |            0 |            0 |
dl2.writebacks                                   2 |            2 |            0 |            0 |            2 |            2 |            0 |            0 |            4 |            4 |            0 |            0 |            3 |            3 |            0 |            0 |            3 |            3 |            0 |            0 |
dl2.invalidations                                0 |            0 |            0 |            0 |            0 |            0 |            0 |            0 |            0 |            0 |            0 |            0 |            0 |            0 |            0 |            0 |            0 |            0 |            0 |            0 |
dl2.miss_rate                               0.0028 |       0.0028 |       0.0028 |       0.0028 |       0.0005 |       0.0005 |       0.0005 |       0.0005 |       0.0002 |       0.0002 |       0.0002 |       0.0002 |       0.0001 |       0.0001 |       0.0001 |       0.0001 |       0.0000 |       0.0000 |       0.0000 |       0.0000 |
dl2.repl_rate                               0.0001 |       0.0001 |       0.0000 |       0.0000 |       0.0000 |       0.0000 |       0.0000 |       0.0000 |       0.0000 |       0.0000 |       0.0000 |       0.0000 |       0.0000 |       0.0000 |       0.0000 |       0.0000 |       0.0000 |       0.0000 |       0.0000 |       0.0000 |
dl2.wb_rate                                 0.0000 |       0.0000 |       0.0000 |       0.0000 |       0.0000 |       0.0000 |       0.0000 |       0.0000 |       0.0000 |       0.0000 |       0.0000 |       0.0000 |       0.0000 |       0.0000 |       0.0000 |       0.0000 |       0.0000 |       0.0000 |       0.0000 |       0.0000 |
dl2.inv_rate                                0.0000 |       0.0000 |       0.0000 |       0.0000 |       0.0000 |       0.0000 |       0.0000 |       0.0000 |       0.0000 |       0.0000 |       0.0000 |       0.0000 |       0.0000 |       0.0000 |       0.0000 |       0.0000 |       0.0000 |       0.0000 |       0.0000 |       0.0000 |
itlb.accesses                             49286071 |     49286071 |     49286071 |     49286071 |    196994276 |    196994276 |    196994276 |    196994276 |    779618178 |    779618178 |    779618178 |    779618178 |   3111802322 |   3111802322 |   3111802322 |   3111802322 |  12439492465 |  12439492465 |  12439492465 |  12439492465 |
itlb.hits                                 49286062 |     49286062 |     49286062 |     49286062 |    196994267 |    196994267 |    196994267 |    196994267 |    779618169 |    779618169 |    779618169 |    779618169 |   3111802313 |   3111802313 |   3111802313 |   3111802313 |  12439492456 |  12439492456 |  12439492456 |  12439492456 |
itlb.misses                                      9 |            9 |            9 |            9 |            9 |            9 |            9 |            9 |            9 |            9 |            9 |            9 |            9 |            9 |            9 |            9 |            9 |            9 |            9 |            9 |
itlb.replacements                                0 |            0 |            0 |            0 |            0 |            0 |            0 |            0 |            0 |            0 |            0 |            0 |            0 |            0 |            0 |            0 |            0 |            0 |            0 |            0 |
itlb.writebacks                                  0 |            0 |            0 |            0 |            0 |            0 |            0 |            0 |            0 |            0 |            0 |            0 |            0 |            0 |            0 |            0 |            0 |            0 |            0 |            0 |
itlb.invalidations                               0 |            0 |            0 |            0 |            0 |            0 |            0 |            0 |            0 |            0 |            0 |            0 |            0 |            0 |            0 |            0 |            0 |            0 |            0 |            0 |
itlb.miss_rate                              0.0000 |       0.0000 |       0.0000 |       0.0000 |       0.0000 |       0.0000 |       0.0000 |       0.0000 |       0.0000 |       0.0000 |       0.0000 |       0.0000 |       0.0000 |       0.0000 |       0.0000 |       0.0000 |       0.0000 |       0.0000 |       0.0000 |       0.0000 |
itlb.repl_rate                              0.0000 |       0.0000 |       0.0000 |       0.0000 |       0.0000 |       0.0000 |       0.0000 |       0.0000 |       0.0000 |       0.0000 |       0.0000 |       0.0000 |       0.0000 |       0.0000 |       0.0000 |       0.0000 |       0.0000 |       0.0000 |       0.0000 |       0.0000 |
itlb.wb_rate                                0.0000 |       0.0000 |       0.0000 |       0.0000 |       0.0000 |       0.0000 |       0.0000 |       0.0000 |       0.0000 |       0.0000 |       0.0000 |       0.0000 |       0.0000 |       0.0000 |       0.0000 |       0.0000 |       0.0000 |       0.0000 |       0.0000 |       0.0000 |
itlb.inv_rate                               0.0000 |       0.0000 |       0.0000 |       0.0000 |       0.0000 |       0.0000 |       0.0000 |       0.0000 |       0.0000 |       0.0000 |       0.0000 |       0.0000 |       0.0000 |       0.0000 |       0.0000 |       0.0000 |       0.0000 |       0.0000 |       0.0000 |       0.0000 |
dtlb.accesses                             19724936 |     19724936 |     19724936 |     19724936 |     78747686 |     78747686 |     78747686 |     78747686 |    311696228 |    311696228 |    311696228 |    311696228 |   1244525406 |   1244525406 |   1244525406 |   1244525406 |   4974495480 |   4974495480 |   4974495480 |   4974495480 |
dtlb.hits                                 19724925 |     19724925 |     19724925 |     19724925 |     78747671 |     78747671 |     78747671 |     78747671 |    311696205 |    311696205 |    311696205 |    311696205 |   1244525367 |   1244525367 |   1244525367 |   1244525367 |   4974495409 |   4974495409 |   4974495409 |   4974495409 |
dtlb.misses                                     11 |           11 |           11 |           11 |           15 |           15 |           15 |           15 |           23 |           23 |           23 |           23 |           39 |           39 |           39 |           39 |           71 |           71 |           71 |           71 |
dtlb.replacements                                0 |            0 |            0 |            0 |            0 |            0 |            0 |            0 |            0 |            0 |            0 |            0 |            0 |            0 |            0 |            0 |            0 |            0 |            0 |            0 |
dtlb.writebacks                                  0 |            0 |            0 |            0 |            0 |            0 |            0 |            0 |            0 |            0 |            0 |            0 |            0 |            0 |            0 |            0 |            0 |            0 |            0 |            0 |
dtlb.invalidations                               0 |            0 |            0 |            0 |            0 |            0 |            0 |            0 |            0 |            0 |            0 |            0 |            0 |            0 |            0 |            0 |            0 |            0 |            0 |            0 |
dtlb.miss_rate                              0.0000 |       0.0000 |       0.0000 |       0.0000 |       0.0000 |       0.0000 |       0.0000 |       0.0000 |       0.0000 |       0.0000 |       0.0000 |       0.0000 |       0.0000 |       0.0000 |       0.0000 |       0.0000 |       0.0000 |       0.0000 |       0.0000 |       0.0000 |
dtlb.repl_rate                              0.0000 |       0.0000 |       0.0000 |       0.0000 |       0.0000 |       0.0000 |       0.0000 |       0.0000 |       0.0000 |       0.0000 |       0.0000 |       0.0000 |       0.0000 |       0.0000 |       0.0000 |       0.0000 |       0.0000 |       0.0000 |       0.0000 |       0.0000 |
dtlb.wb_rate                                0.0000 |       0.0000 |       0.0000 |       0.0000 |       0.0000 |       0.0000 |       0.0000 |       0.0000 |       0.0000 |       0.0000 |       0.0000 |       0.0000 |       0.0000 |       0.0000 |       0.0000 |       0.0000 |       0.0000 |       0.0000 |       0.0000 |       0.0000 |
dtlb.inv_rate                               0.0000 |       0.0000 |       0.0000 |       0.0000 |       0.0000 |       0.0000 |       0.0000 |       0.0000 |       0.0000 |       0.0000 |       0.0000 |       0.0000 |       0.0000 |       0.0000 |       0.0000 |       0.0000 |       0.0000 |       0.0000 |       0.0000 |       0.0000 |
ld_text_base                            0x00400000 |   0x00400000 |   0x00400000 |   0x00400000 |   0x00400000 |   0x00400000 |   0x00400000 |   0x00400000 |   0x00400000 |   0x00400000 |   0x00400000 |   0x00400000 |   0x00400000 |   0x00400000 |   0x00400000 |   0x00400000 |   0x00400000 |   0x00400000 |   0x00400000 |   0x00400000 |
ld_text_size                                 72032 |        72032 |        72032 |        72032 |        72064 |        72064 |        72064 |        72064 |        72080 |        72080 |        72080 |        72080 |        72096 |        72096 |        72096 |        72096 |        72096 |        72096 |        72096 |        72096 |
ld_data_base                            0x10000000 |   0x10000000 |   0x10000000 |   0x10000000 |   0x10000000 |   0x10000000 |   0x10000000 |   0x10000000 |   0x10000000 |   0x10000000 |   0x10000000 |   0x10000000 |   0x10000000 |   0x10000000 |   0x10000000 |   0x10000000 |   0x10000000 |   0x10000000 |   0x10000000 |   0x10000000 |
ld_data_size                                  8192 |         8192 |         8192 |         8192 |         8192 |         8192 |         8192 |         8192 |         8192 |         8192 |         8192 |         8192 |         8192 |         8192 |         8192 |         8192 |         8192 |         8192 |         8192 |         8192 |
ld_stack_base                           0x7fffc000 |   0x7fffc000 |   0x7fffc000 |   0x7fffc000 |   0x7fffc000 |   0x7fffc000 |   0x7fffc000 |   0x7fffc000 |   0x7fffc000 |   0x7fffc000 |   0x7fffc000 |   0x7fffc000 |   0x7fffc000 |   0x7fffc000 |   0x7fffc000 |   0x7fffc000 |   0x7fffc000 |   0x7fffc000 |   0x7fffc000 |   0x7fffc000 |
ld_stack_size                                16384 |        16384 |        16384 |        16384 |        16384 |        16384 |        16384 |        16384 |        16384 |        16384 |        16384 |        16384 |        16384 |        16384 |        16384 |        16384 |        16384 |        16384 |        16384 |        16384 |
ld_prog_entry                           0x00400140 |   0x00400140 |   0x00400140 |   0x00400140 |   0x00400140 |   0x00400140 |   0x00400140 |   0x00400140 |   0x00400140 |   0x00400140 |   0x00400140 |   0x00400140 |   0x00400140 |   0x00400140 |   0x00400140 |   0x00400140 |   0x00400140 |   0x00400140 |   0x00400140 |   0x00400140 |
ld_environ_base                         0x7fff8000 |   0x7fff8000 |   0x7fff8000 |   0x7fff8000 |   0x7fff8000 |   0x7fff8000 |   0x7fff8000 |   0x7fff8000 |   0x7fff8000 |   0x7fff8000 |   0x7fff8000 |   0x7fff8000 |   0x7fff8000 |   0x7fff8000 |   0x7fff8000 |   0x7fff8000 |   0x7fff8000 |   0x7fff8000 |   0x7fff8000 |   0x7fff8000 |
ld_target_big_endian                             0 |            0 |            0 |            0 |            0 |            0 |            0 |            0 |            0 |            0 |            0 |            0 |            0 |            0 |            0 |            0 |            0 |            0 |            0 |            0 |
mem.page_count                                  29 |           29 |           29 |           29 |           33 |           33 |           33 |           33 |           41 |           41 |           41 |           41 |           57 |           57 |           57 |           57 |           89 |           89 |           89 |           89 |
mem.page_mem                                  116k |         116k |         116k |         116k |         132k |         132k |         132k |         132k |         164k |         164k |         164k |         164k |         228k |         228k |         228k |         228k |         356k |         356k |         356k |         356k |
mem.ptab_misses                                 29 |           29 |           29 |           29 |           33 |           33 |           33 |           33 |           41 |           41 |           41 |           41 |           57 |           57 |           57 |           57 |           89 |           89 |           89 |           89 |
mem.ptab_accesses                        237040928 |    237040928 |    237040928 |    237040928 |    945919440 |    945919440 |    945919440 |    945919440 |   3742312228 |   3742312228 |   3742312228 |   3742312228 |  14936707256 |  14936707256 |  14936707256 |  14936707256 |  59707407976 |  59707407976 |  59707407976 |  59707407976 |
mem.ptab_miss_rate                          0.0000 |       0.0000 |       0.0000 |       0.0000 |       0.0000 |       0.0000 |       0.0000 |       0.0000 |       0.0000 |       0.0000 |       0.0000 |       0.0000 |       0.0000 |       0.0000 |       0.0000 |       0.0000 |       0.0000 |       0.0000 |       0.0000 |       0.0000 |
-------------------------------------------------------------------------------------------------
sim-bpred                                     4096 |         4096 |         4096 |         4096 |         4096 |         4096 |         4096 |         8192 |         8192 |         8192 |         8192 |         8192 |         8192 |         8192 |        16384 |        16384 |        16384 |        16384 |        16384 |        16384 |        16384 |        32768 |        32768 |        32768 |        32768 |        32768 |        32768 |        32768 |        65536 |        65536 |        65536 |        65536 |        65536 |        65536 |        65536 |
-bpred bimod -bpred:bimod 512
-bpred bimod -bpred:bimod 1024
-bpred bimod -bpred:bimod 2048
-bpred 2lev -bpred:2lev 1 512 10 1
-bpred 2lev -bpred:2lev 1 1024 10 1
-bpred 2lev -bpred:2lev 1 2048 10 1
-bpred 2lev -bpred:2lev 1 4096 10 1
-------------------------------------------------------------------------------------------------
sim_num_insn                              49286071 |     49286071 |     49286071 |     49286071 |     49286071 |     49286071 |     49286071 |    196994276 |    196994276 |    196994276 |    196994276 |    196994276 |    196994276 |    196994276 |    779618178 |    779618178 |    779618178 |    779618178 |    779618178 |    779618178 |    779618178 |   3111802322 |   3111802322 |   3111802322 |   3111802322 |   3111802322 |   3111802322 |   3111802322 |  12439492465 |  12439492465 |  12439492465 |  12439492465 |  12439492465 |  12439492465 |  12439492465 |
sim_num_refs                              19708470 |     19708470 |     19708470 |     19708470 |     19708470 |     19708470 |     19708470 |     78714836 |     78714836 |     78714836 |     78714836 |     78714836 |     78714836 |     78714836 |    311630610 |    311630610 |    311630610 |    311630610 |    311630610 |    311630610 |    311630610 |   1244394252 |   1244394252 |   1244394252 |   1244394252 |   1244394252 |   1244394252 |   1244394252 |   4974233254 |   4974233254 |   4974233254 |   4974233254 |   4974233254 |   4974233254 |   4974233254 |
sim_elapsed_time                                 5 |            6 |            6 |            5 |            6 |            6 |            6 |           23 |           22 |           23 |           22 |           23 |           23 |           22 |           89 |           89 |           89 |           90 |           90 |           89 |           90 |          355 |          354 |          354 |          360 |          358 |          357 |          358 |         1425 |         1425 |         1420 |         1436 |         1426 |         1425 |         1426 |
sim_inst_rate                         9857214.2000 | 8214345.1667 | 8214345.1667 | 9857214.2000 | 8214345.1667 | 8214345.1667 | 8214345.1667 | 8564968.5217 | 8954285.2727 | 8564968.5217 | 8954285.2727 | 8564968.5217 | 8564968.5217 | 8954285.2727 | 8759754.8090 | 8759754.8090 | 8759754.8090 | 8662424.2000 | 8662424.2000 | 8759754.8090 | 8662424.2000 | 8765640.3437 | 8790402.0395 | 8790402.0395 | 8643895.3389 | 8692185.2570 | 8716533.1148 | 8692185.2570 | 8729468.3965 | 8729468.3965 | 8760205.9613 | 8662599.2096 | 8723346.7496 | 8729468.3965 | 8723346.7496 |
sim_num_branches                           7042164 |      7042164 |      7042164 |      7042164 |      7042164 |      7042164 |      7042164 |     28182200 |     28182200 |     28182200 |     28182200 |     28182200 |     28182200 |     28182200 |    111481318 |    111481318 |    111481318 |    111481318 |    111481318 |    111481318 |    111481318 |    444700174 |    444700174 |    444700174 |    444700174 |    444700174 |    444700174 |    444700174 |   1777871586 |   1777871586 |   1777871586 |   1777871586 |   1777871586 |   1777871586 |   1777871586 |
sim_IPB                                     6.9987 |       6.9987 |       6.9987 |       6.9987 |       6.9987 |       6.9987 |       6.9987 |       6.9900 |       6.9900 |       6.9900 |       6.9900 |       6.9900 |       6.9900 |       6.9900 |       6.9933 |       6.9933 |       6.9933 |       6.9933 |       6.9933 |       6.9933 |       6.9933 |       6.9975 |       6.9975 |       6.9975 |       6.9975 |       6.9975 |       6.9975 |       6.9975 |       6.9968 |       6.9968 |       6.9968 |       6.9968 |       6.9968 |       6.9968 |       6.9968 |
bpred_bimod.lookups                        7042164 |      7042164 |      7042164 |xxxxxxxxxxxxx |xxxxxxxxxxxxx |xxxxxxxxxxxxx |xxxxxxxxxxxxx |     28182200 |     28182200 |     28182200 |xxxxxxxxxxxxx |xxxxxxxxxxxxx |xxxxxxxxxxxxx |xxxxxxxxxxxxx |    111481318 |    111481318 |    111481318 |xxxxxxxxxxxxx |xxxxxxxxxxxxx |xxxxxxxxxxxxx |xxxxxxxxxxxxx |    444700174 |    444700174 |    444700174 |xxxxxxxxxxxxx |xxxxxxxxxxxxx |xxxxxxxxxxxxx |xxxxxxxxxxxxx |   1777871586 |   1777871586 |   1777871586 |
bpred_bimod.updates                        7042164 |      7042164 |      7042164 |xxxxxxxxxxxxx |xxxxxxxxxxxxx |xxxxxxxxxxxxx |xxxxxxxxxxxxx |     28182200 |     28182200 |     28182200 |xxxxxxxxxxxxx |xxxxxxxxxxxxx |xxxxxxxxxxxxx |xxxxxxxxxxxxx |    111481318 |    111481318 |    111481318 |xxxxxxxxxxxxx |xxxxxxxxxxxxx |xxxxxxxxxxxxx |xxxxxxxxxxxxx |    444700174 |    444700174 |    444700174 |xxxxxxxxxxxxx |xxxxxxxxxxxxx |xxxxxxxxxxxxx |xxxxxxxxxxxxx |   1777871586 |   1777871586 |   1777871586 |
bpred_bimod.addr_hits                      5636638 |      5636641 |      5636641 |xxxxxxxxxxxxx |xxxxxxxxxxxxx |xxxxxxxxxxxxx |xxxxxxxxxxxxx |     22529914 |     22529916 |     22529919 |xxxxxxxxxxxxx |xxxxxxxxxxxxx |xxxxxxxxxxxxx |xxxxxxxxxxxxx |     88810410 |     88810414 |     88810416 |xxxxxxxxxxxxx |xxxxxxxxxxxxx |xxxxxxxxxxxxx |xxxxxxxxxxxxx |    355297763 |    355297766 |    355297766 |xxxxxxxxxxxxx |xxxxxxxxxxxxx |xxxxxxxxxxxxx |xxxxxxxxxxxxx |   1418501719 |   1418501722 |   1418501722 |
bpred_bimod.dir_hits                       5636737 |      5636739 |      5636736 |xxxxxxxxxxxxx |xxxxxxxxxxxxx |xxxxxxxxxxxxx |xxxxxxxxxxxxx |     22530012 |     22530012 |     22530014 |xxxxxxxxxxxxx |xxxxxxxxxxxxx |xxxxxxxxxxxxx |xxxxxxxxxxxxx |     88810511 |     88810512 |     88810513 |xxxxxxxxxxxxx |xxxxxxxxxxxxx |xxxxxxxxxxxxx |xxxxxxxxxxxxx |    355297860 |    355297862 |    355297860 |xxxxxxxxxxxxx |xxxxxxxxxxxxx |xxxxxxxxxxxxx |xxxxxxxxxxxxx |   1418501815 |   1418501817 |   1418501815 |
bpred_bimod.misses                         1405427 |      1405425 |      1405428 |xxxxxxxxxxxxx |xxxxxxxxxxxxx |xxxxxxxxxxxxx |xxxxxxxxxxxxx |      5652188 |      5652188 |      5652186 |xxxxxxxxxxxxx |xxxxxxxxxxxxx |xxxxxxxxxxxxx |xxxxxxxxxxxxx |     22670807 |     22670806 |     22670805 |xxxxxxxxxxxxx |xxxxxxxxxxxxx |xxxxxxxxxxxxx |xxxxxxxxxxxxx |     89402314 |     89402312 |     89402314 |xxxxxxxxxxxxx |xxxxxxxxxxxxx |xxxxxxxxxxxxx |xxxxxxxxxxxxx |    359369771 |    359369769 |    359369771 |
bpred_bimod.jr_hits                             57 |           57 |           57 |xxxxxxxxxxxxx |xxxxxxxxxxxxx |xxxxxxxxxxxxx |xxxxxxxxxxxxx |           57 |           57 |           57 |xxxxxxxxxxxxx |xxxxxxxxxxxxx |xxxxxxxxxxxxx |xxxxxxxxxxxxx |           57 |           57 |           57 |xxxxxxxxxxxxx |xxxxxxxxxxxxx |xxxxxxxxxxxxx |xxxxxxxxxxxxx |           57 |           57 |           57 |xxxxxxxxxxxxx |xxxxxxxxxxxxx |xxxxxxxxxxxxx |xxxxxxxxxxxxx |           57 |           57 |           57 |
bpred_bimod.jr_seen                             58 |           58 |           58 |xxxxxxxxxxxxx |xxxxxxxxxxxxx |xxxxxxxxxxxxx |xxxxxxxxxxxxx |           58 |           58 |           58 |xxxxxxxxxxxxx |xxxxxxxxxxxxx |xxxxxxxxxxxxx |xxxxxxxxxxxxx |           58 |           58 |           58 |xxxxxxxxxxxxx |xxxxxxxxxxxxx |xxxxxxxxxxxxx |xxxxxxxxxxxxx |           58 |           58 |           58 |xxxxxxxxxxxxx |xxxxxxxxxxxxx |xxxxxxxxxxxxx |xxxxxxxxxxxxx |           58 |           58 |           58 |
bpred_bimod.jr_non_ras_hits.PP                   0 |            0 |            0 |xxxxxxxxxxxxx |xxxxxxxxxxxxx |xxxxxxxxxxxxx |xxxxxxxxxxxxx |            0 |            0 |            0 |xxxxxxxxxxxxx |xxxxxxxxxxxxx |xxxxxxxxxxxxx |xxxxxxxxxxxxx |            0 |            0 |            0 |xxxxxxxxxxxxx |xxxxxxxxxxxxx |xxxxxxxxxxxxx |xxxxxxxxxxxxx |            0 |            0 |            0 |xxxxxxxxxxxxx |xxxxxxxxxxxxx |xxxxxxxxxxxxx |xxxxxxxxxxxxx |            0 |            0 |            0 |
bpred_bimod.jr_non_ras_seen.PP                   0 |            0 |            0 |xxxxxxxxxxxxx |xxxxxxxxxxxxx |xxxxxxxxxxxxx |xxxxxxxxxxxxx |            0 |            0 |            0 |xxxxxxxxxxxxx |xxxxxxxxxxxxx |xxxxxxxxxxxxx |xxxxxxxxxxxxx |            0 |            0 |            0 |xxxxxxxxxxxxx |xxxxxxxxxxxxx |xxxxxxxxxxxxx |xxxxxxxxxxxxx |            0 |            0 |            0 |xxxxxxxxxxxxx |xxxxxxxxxxxxx |xxxxxxxxxxxxx |xxxxxxxxxxxxx |            0 |            0 |            0 |
bpred_bimod.bpred_addr_rate                 0.8004 |       0.8004 |       0.8004 |xxxxxxxxxxxxx |xxxxxxxxxxxxx |xxxxxxxxxxxxx |xxxxxxxxxxxxx |       0.7994 |       0.7994 |       0.7994 |xxxxxxxxxxxxx |xxxxxxxxxxxxx |xxxxxxxxxxxxx |xxxxxxxxxxxxx |       0.7966 |       0.7966 |       0.7966 |xxxxxxxxxxxxx |xxxxxxxxxxxxx |xxxxxxxxxxxxx |xxxxxxxxxxxxx |       0.7990 |       0.7990 |       0.7990 |xxxxxxxxxxxxx |xxxxxxxxxxxxx |xxxxxxxxxxxxx |xxxxxxxxxxxxx |       0.7979 |       0.7979 |       0.7979 |
bpred_bimod.bpred_dir_rate                  0.8004 |       0.8004 |       0.8004 |xxxxxxxxxxxxx |xxxxxxxxxxxxx |xxxxxxxxxxxxx |xxxxxxxxxxxxx |       0.7994 |       0.7994 |       0.7994 |xxxxxxxxxxxxx |xxxxxxxxxxxxx |xxxxxxxxxxxxx |xxxxxxxxxxxxx |       0.7966 |       0.7966 |       0.7966 |xxxxxxxxxxxxx |xxxxxxxxxxxxx |xxxxxxxxxxxxx |xxxxxxxxxxxxx |       0.7990 |       0.7990 |       0.7990 |xxxxxxxxxxxxx |xxxxxxxxxxxxx |xxxxxxxxxxxxx |xxxxxxxxxxxxx |       0.7979 |       0.7979 |       0.7979 |
bpred_bimod.bpred_jr_rate                   0.9828 |       0.9828 |       0.9828 |xxxxxxxxxxxxx |xxxxxxxxxxxxx |xxxxxxxxxxxxx |xxxxxxxxxxxxx |       0.9828 |       0.9828 |       0.9828 |xxxxxxxxxxxxx |xxxxxxxxxxxxx |xxxxxxxxxxxxx |xxxxxxxxxxxxx |       0.9828 |       0.9828 |       0.9828 |xxxxxxxxxxxxx |xxxxxxxxxxxxx |xxxxxxxxxxxxx |xxxxxxxxxxxxx |       0.9828 |       0.9828 |       0.9828 |xxxxxxxxxxxxx |xxxxxxxxxxxxx |xxxxxxxxxxxxx |xxxxxxxxxxxxx |       0.9828 |       0.9828 |       0.9828 |
bpred_bimod.bpred_jr_non_ras_rate.PP       <error: |      <error: |      <error: |xxxxxxxxxxxxx |xxxxxxxxxxxxx |xxxxxxxxxxxxx |xxxxxxxxxxxxx |      <error: |      <error: |      <error: |xxxxxxxxxxxxx |xxxxxxxxxxxxx |xxxxxxxxxxxxx |xxxxxxxxxxxxx |      <error: |      <error: |      <error: |xxxxxxxxxxxxx |xxxxxxxxxxxxx |xxxxxxxxxxxxx |xxxxxxxxxxxxx |      <error: |      <error: |      <error: |xxxxxxxxxxxxx |xxxxxxxxxxxxx |xxxxxxxxxxxxx |xxxxxxxxxxxxx |      <error: |      <error: |      <error: |
bpred_bimod.retstack_pushes                     60 |           60 |           60 |xxxxxxxxxxxxx |xxxxxxxxxxxxx |xxxxxxxxxxxxx |xxxxxxxxxxxxx |           60 |           60 |           60 |xxxxxxxxxxxxx |xxxxxxxxxxxxx |xxxxxxxxxxxxx |xxxxxxxxxxxxx |           60 |           60 |           60 |xxxxxxxxxxxxx |xxxxxxxxxxxxx |xxxxxxxxxxxxx |xxxxxxxxxxxxx |           60 |           60 |           60 |xxxxxxxxxxxxx |xxxxxxxxxxxxx |xxxxxxxxxxxxx |xxxxxxxxxxxxx |           60 |           60 |           60 |
bpred_bimod.retstack_pops                       58 |           58 |           58 |xxxxxxxxxxxxx |xxxxxxxxxxxxx |xxxxxxxxxxxxx |xxxxxxxxxxxxx |           58 |           58 |           58 |xxxxxxxxxxxxx |xxxxxxxxxxxxx |xxxxxxxxxxxxx |xxxxxxxxxxxxx |           58 |           58 |           58 |xxxxxxxxxxxxx |xxxxxxxxxxxxx |xxxxxxxxxxxxx |xxxxxxxxxxxxx |           58 |           58 |           58 |xxxxxxxxxxxxx |xxxxxxxxxxxxx |xxxxxxxxxxxxx |xxxxxxxxxxxxx |           58 |           58 |           58 |
bpred_bimod.used_ras.PP                         58 |           58 |           58 |xxxxxxxxxxxxx |xxxxxxxxxxxxx |xxxxxxxxxxxxx |xxxxxxxxxxxxx |           58 |           58 |           58 |xxxxxxxxxxxxx |xxxxxxxxxxxxx |xxxxxxxxxxxxx |xxxxxxxxxxxxx |           58 |           58 |           58 |xxxxxxxxxxxxx |xxxxxxxxxxxxx |xxxxxxxxxxxxx |xxxxxxxxxxxxx |           58 |           58 |           58 |xxxxxxxxxxxxx |xxxxxxxxxxxxx |xxxxxxxxxxxxx |xxxxxxxxxxxxx |           58 |           58 |           58 |
bpred_bimod.ras_hits.PP                         57 |           57 |           57 |xxxxxxxxxxxxx |xxxxxxxxxxxxx |xxxxxxxxxxxxx |xxxxxxxxxxxxx |           57 |           57 |           57 |xxxxxxxxxxxxx |xxxxxxxxxxxxx |xxxxxxxxxxxxx |xxxxxxxxxxxxx |           57 |           57 |           57 |xxxxxxxxxxxxx |xxxxxxxxxxxxx |xxxxxxxxxxxxx |xxxxxxxxxxxxx |           57 |           57 |           57 |xxxxxxxxxxxxx |xxxxxxxxxxxxx |xxxxxxxxxxxxx |xxxxxxxxxxxxx |           57 |           57 |           57 |
bpred_bimod.ras_rate.PP                     0.9828 |       0.9828 |       0.9828 |xxxxxxxxxxxxx |xxxxxxxxxxxxx |xxxxxxxxxxxxx |xxxxxxxxxxxxx |       0.9828 |       0.9828 |       0.9828 |xxxxxxxxxxxxx |xxxxxxxxxxxxx |xxxxxxxxxxxxx |xxxxxxxxxxxxx |       0.9828 |       0.9828 |       0.9828 |xxxxxxxxxxxxx |xxxxxxxxxxxxx |xxxxxxxxxxxxx |xxxxxxxxxxxxx |       0.9828 |       0.9828 |       0.9828 |xxxxxxxxxxxxx |xxxxxxxxxxxxx |xxxxxxxxxxxxx |xxxxxxxxxxxxx |       0.9828 |       0.9828 |       0.9828 |
bpred_2lev.lookups                   xxxxxxxxxxxxx |xxxxxxxxxxxxx |xxxxxxxxxxxxx |      7042164 |      7042164 |      7042164 |      7042164 |xxxxxxxxxxxxx |xxxxxxxxxxxxx |xxxxxxxxxxxxx |     28182200 |     28182200 |     28182200 |     28182200 |xxxxxxxxxxxxx |xxxxxxxxxxxxx |xxxxxxxxxxxxx |    111481318 |    111481318 |    111481318 |    111481318 |xxxxxxxxxxxxx |xxxxxxxxxxxxx |xxxxxxxxxxxxx |    444700174 |    444700174 |    444700174 |    444700174 |xxxxxxxxxxxxx |xxxxxxxxxxxxx |xxxxxxxxxxxxx |   1777871586 |   1777871586 |   1777871586 |   1777871586 |
bpred_2lev.updates                   xxxxxxxxxxxxx |xxxxxxxxxxxxx |xxxxxxxxxxxxx |      7042164 |      7042164 |      7042164 |      7042164 |xxxxxxxxxxxxx |xxxxxxxxxxxxx |xxxxxxxxxxxxx |     28182200 |     28182200 |     28182200 |     28182200 |xxxxxxxxxxxxx |xxxxxxxxxxxxx |xxxxxxxxxxxxx |    111481318 |    111481318 |    111481318 |    111481318 |xxxxxxxxxxxxx |xxxxxxxxxxxxx |xxxxxxxxxxxxx |    444700174 |    444700174 |    444700174 |    444700174 |xxxxxxxxxxxxx |xxxxxxxxxxxxx |xxxxxxxxxxxxx |   1777871586 |   1777871586 |   1777871586 |   1777871586 |
bpred_2lev.addr_hits                 xxxxxxxxxxxxx |xxxxxxxxxxxxx |xxxxxxxxxxxxx |      5154972 |      5327248 |      5497844 |      5588779 |xxxxxxxxxxxxx |xxxxxxxxxxxxx |xxxxxxxxxxxxx |     20804579 |     21305494 |     21805665 |     22062212 |xxxxxxxxxxxxx |xxxxxxxxxxxxx |xxxxxxxxxxxxx |     83119351 |     84729333 |     86225499 |     87006913 |xxxxxxxxxxxxx |xxxxxxxxxxxxx |xxxxxxxxxxxxx |    336982583 |    341787363 |    346859482 |    349024860 |xxxxxxxxxxxxx |xxxxxxxxxxxxx |xxxxxxxxxxxxx |   1355903390 |   1374738064 |   1394433683 |   1401684515 |
bpred_2lev.dir_hits                  xxxxxxxxxxxxx |xxxxxxxxxxxxx |xxxxxxxxxxxxx |      5155087 |      5327361 |      5497953 |      5588885 |xxxxxxxxxxxxx |xxxxxxxxxxxxx |xxxxxxxxxxxxx |     20804696 |     21305612 |     21805778 |     22062327 |xxxxxxxxxxxxx |xxxxxxxxxxxxx |xxxxxxxxxxxxx |     83119473 |     84729451 |     86225616 |     87007024 |xxxxxxxxxxxxx |xxxxxxxxxxxxx |xxxxxxxxxxxxx |    336982701 |    341787478 |    346859591 |    349024967 |xxxxxxxxxxxxx |xxxxxxxxxxxxx |xxxxxxxxxxxxx |   1355903514 |   1374738188 |   1394433795 |   1401684624 |
bpred_2lev.misses                    xxxxxxxxxxxxx |xxxxxxxxxxxxx |xxxxxxxxxxxxx |      1887077 |      1714803 |      1544211 |      1453279 |xxxxxxxxxxxxx |xxxxxxxxxxxxx |xxxxxxxxxxxxx |      7377504 |      6876588 |      6376422 |      6119873 |xxxxxxxxxxxxx |xxxxxxxxxxxxx |xxxxxxxxxxxxx |     28361845 |     26751867 |     25255702 |     24474294 |xxxxxxxxxxxxx |xxxxxxxxxxxxx |xxxxxxxxxxxxx |    107717473 |    102912696 |     97840583 |     95675207 |xxxxxxxxxxxxx |xxxxxxxxxxxxx |xxxxxxxxxxxxx |    421968072 |    403133398 |    383437791 |    376186962 |
bpred_2lev.jr_hits                   xxxxxxxxxxxxx |xxxxxxxxxxxxx |xxxxxxxxxxxxx |           57 |           57 |           57 |           57 |xxxxxxxxxxxxx |xxxxxxxxxxxxx |xxxxxxxxxxxxx |           57 |           57 |           57 |           57 |xxxxxxxxxxxxx |xxxxxxxxxxxxx |xxxxxxxxxxxxx |           57 |           57 |           57 |           57 |xxxxxxxxxxxxx |xxxxxxxxxxxxx |xxxxxxxxxxxxx |           57 |           57 |           57 |           57 |xxxxxxxxxxxxx |xxxxxxxxxxxxx |xxxxxxxxxxxxx |           57 |           57 |           57 |           57 |
bpred_2lev.jr_seen                   xxxxxxxxxxxxx |xxxxxxxxxxxxx |xxxxxxxxxxxxx |           58 |           58 |           58 |           58 |xxxxxxxxxxxxx |xxxxxxxxxxxxx |xxxxxxxxxxxxx |           58 |           58 |           58 |           58 |xxxxxxxxxxxxx |xxxxxxxxxxxxx |xxxxxxxxxxxxx |           58 |           58 |           58 |           58 |xxxxxxxxxxxxx |xxxxxxxxxxxxx |xxxxxxxxxxxxx |           58 |           58 |           58 |           58 |xxxxxxxxxxxxx |xxxxxxxxxxxxx |xxxxxxxxxxxxx |           58 |           58 |           58 |           58 |
bpred_2lev.jr_non_ras_hits.PP        xxxxxxxxxxxxx |xxxxxxxxxxxxx |xxxxxxxxxxxxx |            0 |            0 |            0 |            0 |xxxxxxxxxxxxx |xxxxxxxxxxxxx |xxxxxxxxxxxxx |            0 |            0 |            0 |            0 |xxxxxxxxxxxxx |xxxxxxxxxxxxx |xxxxxxxxxxxxx |            0 |            0 |            0 |            0 |xxxxxxxxxxxxx |xxxxxxxxxxxxx |xxxxxxxxxxxxx |            0 |            0 |            0 |            0 |xxxxxxxxxxxxx |xxxxxxxxxxxxx |xxxxxxxxxxxxx |            0 |            0 |            0 |            0 |
bpred_2lev.jr_non_ras_seen.PP        xxxxxxxxxxxxx |xxxxxxxxxxxxx |xxxxxxxxxxxxx |            0 |            0 |            0 |            0 |xxxxxxxxxxxxx |xxxxxxxxxxxxx |xxxxxxxxxxxxx |            0 |            0 |            0 |            0 |xxxxxxxxxxxxx |xxxxxxxxxxxxx |xxxxxxxxxxxxx |            0 |            0 |            0 |            0 |xxxxxxxxxxxxx |xxxxxxxxxxxxx |xxxxxxxxxxxxx |            0 |            0 |            0 |            0 |xxxxxxxxxxxxx |xxxxxxxxxxxxx |xxxxxxxxxxxxx |            0 |            0 |            0 |            0 |
bpred_2lev.bpred_addr_rate           xxxxxxxxxxxxx |xxxxxxxxxxxxx |xxxxxxxxxxxxx |       0.7320 |       0.7565 |       0.7807 |       0.7936 |xxxxxxxxxxxxx |xxxxxxxxxxxxx |xxxxxxxxxxxxx |       0.7382 |       0.7560 |       0.7737 |       0.7828 |xxxxxxxxxxxxx |xxxxxxxxxxxxx |xxxxxxxxxxxxx |       0.7456 |       0.7600 |       0.7735 |       0.7805 |xxxxxxxxxxxxx |xxxxxxxxxxxxx |xxxxxxxxxxxxx |       0.7578 |       0.7686 |       0.7800 |       0.7849 |xxxxxxxxxxxxx |xxxxxxxxxxxxx |xxxxxxxxxxxxx |       0.7627 |       0.7732 |       0.7843 |       0.7884 |
bpred_2lev.bpred_dir_rate            xxxxxxxxxxxxx |xxxxxxxxxxxxx |xxxxxxxxxxxxx |       0.7320 |       0.7565 |       0.7807 |       0.7936 |xxxxxxxxxxxxx |xxxxxxxxxxxxx |xxxxxxxxxxxxx |       0.7382 |       0.7560 |       0.7737 |       0.7828 |xxxxxxxxxxxxx |xxxxxxxxxxxxx |xxxxxxxxxxxxx |       0.7456 |       0.7600 |       0.7735 |       0.7805 |xxxxxxxxxxxxx |xxxxxxxxxxxxx |xxxxxxxxxxxxx |       0.7578 |       0.7686 |       0.7800 |       0.7849 |xxxxxxxxxxxxx |xxxxxxxxxxxxx |xxxxxxxxxxxxx |       0.7627 |       0.7732 |       0.7843 |       0.7884 |
bpred_2lev.bpred_jr_rate             xxxxxxxxxxxxx |xxxxxxxxxxxxx |xxxxxxxxxxxxx |       0.9828 |       0.9828 |       0.9828 |       0.9828 |xxxxxxxxxxxxx |xxxxxxxxxxxxx |xxxxxxxxxxxxx |       0.9828 |       0.9828 |       0.9828 |       0.9828 |xxxxxxxxxxxxx |xxxxxxxxxxxxx |xxxxxxxxxxxxx |       0.9828 |       0.9828 |       0.9828 |       0.9828 |xxxxxxxxxxxxx |xxxxxxxxxxxxx |xxxxxxxxxxxxx |       0.9828 |       0.9828 |       0.9828 |       0.9828 |xxxxxxxxxxxxx |xxxxxxxxxxxxx |xxxxxxxxxxxxx |       0.9828 |       0.9828 |       0.9828 |       0.9828 |
bpred_2lev.bpred_jr_non_ras_rate.PP  xxxxxxxxxxxxx |xxxxxxxxxxxxx |xxxxxxxxxxxxx |      <error: |      <error: |      <error: |      <error: |xxxxxxxxxxxxx |xxxxxxxxxxxxx |xxxxxxxxxxxxx |      <error: |      <error: |      <error: |      <error: |xxxxxxxxxxxxx |xxxxxxxxxxxxx |xxxxxxxxxxxxx |      <error: |      <error: |      <error: |      <error: |xxxxxxxxxxxxx |xxxxxxxxxxxxx |xxxxxxxxxxxxx |      <error: |      <error: |      <error: |      <error: |xxxxxxxxxxxxx |xxxxxxxxxxxxx |xxxxxxxxxxxxx |      <error: |      <error: |      <error: |      <error: |
bpred_2lev.retstack_pushes           xxxxxxxxxxxxx |xxxxxxxxxxxxx |xxxxxxxxxxxxx |           60 |           60 |           60 |           60 |xxxxxxxxxxxxx |xxxxxxxxxxxxx |xxxxxxxxxxxxx |           60 |           60 |           60 |           60 |xxxxxxxxxxxxx |xxxxxxxxxxxxx |xxxxxxxxxxxxx |           60 |           60 |           60 |           60 |xxxxxxxxxxxxx |xxxxxxxxxxxxx |xxxxxxxxxxxxx |           60 |           60 |           60 |           60 |xxxxxxxxxxxxx |xxxxxxxxxxxxx |xxxxxxxxxxxxx |           60 |           60 |           60 |           60 |
bpred_2lev.retstack_pops             xxxxxxxxxxxxx |xxxxxxxxxxxxx |xxxxxxxxxxxxx |           58 |           58 |           58 |           58 |xxxxxxxxxxxxx |xxxxxxxxxxxxx |xxxxxxxxxxxxx |           58 |           58 |           58 |           58 |xxxxxxxxxxxxx |xxxxxxxxxxxxx |xxxxxxxxxxxxx |           58 |           58 |           58 |           58 |xxxxxxxxxxxxx |xxxxxxxxxxxxx |xxxxxxxxxxxxx |           58 |           58 |           58 |           58 |xxxxxxxxxxxxx |xxxxxxxxxxxxx |xxxxxxxxxxxxx |           58 |           58 |           58 |           58 |
bpred_2lev.used_ras.PP               xxxxxxxxxxxxx |xxxxxxxxxxxxx |xxxxxxxxxxxxx |           58 |           58 |           58 |           58 |xxxxxxxxxxxxx |xxxxxxxxxxxxx |xxxxxxxxxxxxx |           58 |           58 |           58 |           58 |xxxxxxxxxxxxx |xxxxxxxxxxxxx |xxxxxxxxxxxxx |           58 |           58 |           58 |           58 |xxxxxxxxxxxxx |xxxxxxxxxxxxx |xxxxxxxxxxxxx |           58 |           58 |           58 |           58 |xxxxxxxxxxxxx |xxxxxxxxxxxxx |xxxxxxxxxxxxx |           58 |           58 |           58 |           58 |
bpred_2lev.ras_hits.PP               xxxxxxxxxxxxx |xxxxxxxxxxxxx |xxxxxxxxxxxxx |           57 |           57 |           57 |           57 |xxxxxxxxxxxxx |xxxxxxxxxxxxx |xxxxxxxxxxxxx |           57 |           57 |           57 |           57 |xxxxxxxxxxxxx |xxxxxxxxxxxxx |xxxxxxxxxxxxx |           57 |           57 |           57 |           57 |xxxxxxxxxxxxx |xxxxxxxxxxxxx |xxxxxxxxxxxxx |           57 |           57 |           57 |           57 |xxxxxxxxxxxxx |xxxxxxxxxxxxx |xxxxxxxxxxxxx |           57 |           57 |           57 |           57 |
bpred_2lev.ras_rate.PP               xxxxxxxxxxxxx |xxxxxxxxxxxxx |xxxxxxxxxxxxx |       0.9828 |       0.9828 |       0.9828 |       0.9828 |xxxxxxxxxxxxx |xxxxxxxxxxxxx |xxxxxxxxxxxxx |       0.9828 |       0.9828 |       0.9828 |       0.9828 |xxxxxxxxxxxxx |xxxxxxxxxxxxx |xxxxxxxxxxxxx |       0.9828 |       0.9828 |       0.9828 |       0.9828 |xxxxxxxxxxxxx |xxxxxxxxxxxxx |xxxxxxxxxxxxx |       0.9828 |       0.9828 |       0.9828 |       0.9828 |xxxxxxxxxxxxx |xxxxxxxxxxxxx |xxxxxxxxxxxxx |       0.9828 |       0.9828 |       0.9828 |       0.9828 |

Command list: 
	sslittle-na-sstrix-gcc -Wall -O3 -funroll-loops -finline-functions  -DRANDOM_SIZE=4096 -DOFFSET=9 -DSORT=on2_shakersort2 sorts/on2_shakersort2412714709.c simpleMain.c -o on2_shakersort21487220891
	sim-cache -cache:dl1 dl1:256:32:1:l -cache:dl2 dl2:131072:32:1:l -cache:il1 il1:256:32:1:l -cache:il2 dl2 on2_shakersort21487220891
	sim-cache -cache:dl1 dl1:256:32:1:l -cache:dl2 dl2:65536:32:1:l -cache:il1 il1:256:32:1:l -cache:il2 dl2 on2_shakersort21487220891
	sim-cache -cache:dl1 dl1:1:32:256:l -cache:dl2 dl2:1:32:131072:l -cache:il1 il1:1:32:256:l -cache:il2 dl2 on2_shakersort21487220891
	sim-cache -cache:dl1 dl1:1:32:256:l -cache:dl2 dl2:1:32:65536:l -cache:il1 il1:1:32:256:l -cache:il2 dl2 on2_shakersort21487220891
	sim-bpred -bpred bimod -bpred:bimod 512 on2_shakersort21487220891
	sim-bpred -bpred bimod -bpred:bimod 1024 on2_shakersort21487220891
	sim-bpred -bpred bimod -bpred:bimod 2048 on2_shakersort21487220891
	sim-bpred -bpred 2lev -bpred:2lev 1 512 10 1 on2_shakersort21487220891
	sim-bpred -bpred 2lev -bpred:2lev 1 1024 10 1 on2_shakersort21487220891
	sim-bpred -bpred 2lev -bpred:2lev 1 2048 10 1 on2_shakersort21487220891
	sim-bpred -bpred 2lev -bpred:2lev 1 4096 10 1 on2_shakersort21487220891
	sslittle-na-sstrix-gcc -Wall -O3 -funroll-loops -finline-functions  -DRANDOM_SIZE=8192 -DOFFSET=9 -DSORT=on2_shakersort2 sorts/on2_shakersort2412714709.c simpleMain.c -o on2_shakersort21487220891
	sim-cache -cache:dl1 dl1:256:32:1:l -cache:dl2 dl2:131072:32:1:l -cache:il1 il1:256:32:1:l -cache:il2 dl2 on2_shakersort21487220891
	sim-cache -cache:dl1 dl1:256:32:1:l -cache:dl2 dl2:65536:32:1:l -cache:il1 il1:256:32:1:l -cache:il2 dl2 on2_shakersort21487220891
	sim-cache -cache:dl1 dl1:1:32:256:l -cache:dl2 dl2:1:32:131072:l -cache:il1 il1:1:32:256:l -cache:il2 dl2 on2_shakersort21487220891
	sim-cache -cache:dl1 dl1:1:32:256:l -cache:dl2 dl2:1:32:65536:l -cache:il1 il1:1:32:256:l -cache:il2 dl2 on2_shakersort21487220891
	sim-bpred -bpred bimod -bpred:bimod 512 on2_shakersort21487220891
	sim-bpred -bpred bimod -bpred:bimod 1024 on2_shakersort21487220891
	sim-bpred -bpred bimod -bpred:bimod 2048 on2_shakersort21487220891
	sim-bpred -bpred 2lev -bpred:2lev 1 512 10 1 on2_shakersort21487220891
	sim-bpred -bpred 2lev -bpred:2lev 1 1024 10 1 on2_shakersort21487220891
	sim-bpred -bpred 2lev -bpred:2lev 1 2048 10 1 on2_shakersort21487220891
	sim-bpred -bpred 2lev -bpred:2lev 1 4096 10 1 on2_shakersort21487220891
	sslittle-na-sstrix-gcc -Wall -O3 -funroll-loops -finline-functions  -DRANDOM_SIZE=16384 -DOFFSET=9 -DSORT=on2_shakersort2 sorts/on2_shakersort2412714709.c simpleMain.c -o on2_shakersort21487220891
	sim-cache -cache:dl1 dl1:256:32:1:l -cache:dl2 dl2:131072:32:1:l -cache:il1 il1:256:32:1:l -cache:il2 dl2 on2_shakersort21487220891
	sim-cache -cache:dl1 dl1:256:32:1:l -cache:dl2 dl2:65536:32:1:l -cache:il1 il1:256:32:1:l -cache:il2 dl2 on2_shakersort21487220891
	sim-cache -cache:dl1 dl1:1:32:256:l -cache:dl2 dl2:1:32:131072:l -cache:il1 il1:1:32:256:l -cache:il2 dl2 on2_shakersort21487220891
	sim-cache -cache:dl1 dl1:1:32:256:l -cache:dl2 dl2:1:32:65536:l -cache:il1 il1:1:32:256:l -cache:il2 dl2 on2_shakersort21487220891
	sim-bpred -bpred bimod -bpred:bimod 512 on2_shakersort21487220891
	sim-bpred -bpred bimod -bpred:bimod 1024 on2_shakersort21487220891
	sim-bpred -bpred bimod -bpred:bimod 2048 on2_shakersort21487220891
	sim-bpred -bpred 2lev -bpred:2lev 1 512 10 1 on2_shakersort21487220891
	sim-bpred -bpred 2lev -bpred:2lev 1 1024 10 1 on2_shakersort21487220891
	sim-bpred -bpred 2lev -bpred:2lev 1 2048 10 1 on2_shakersort21487220891
	sim-bpred -bpred 2lev -bpred:2lev 1 4096 10 1 on2_shakersort21487220891
	sslittle-na-sstrix-gcc -Wall -O3 -funroll-loops -finline-functions  -DRANDOM_SIZE=32768 -DOFFSET=9 -DSORT=on2_shakersort2 sorts/on2_shakersort2412714709.c simpleMain.c -o on2_shakersort21487220891
	sim-cache -cache:dl1 dl1:256:32:1:l -cache:dl2 dl2:131072:32:1:l -cache:il1 il1:256:32:1:l -cache:il2 dl2 on2_shakersort21487220891
	sim-cache -cache:dl1 dl1:256:32:1:l -cache:dl2 dl2:65536:32:1:l -cache:il1 il1:256:32:1:l -cache:il2 dl2 on2_shakersort21487220891
	sim-cache -cache:dl1 dl1:1:32:256:l -cache:dl2 dl2:1:32:131072:l -cache:il1 il1:1:32:256:l -cache:il2 dl2 on2_shakersort21487220891
	sim-cache -cache:dl1 dl1:1:32:256:l -cache:dl2 dl2:1:32:65536:l -cache:il1 il1:1:32:256:l -cache:il2 dl2 on2_shakersort21487220891
	sim-bpred -bpred bimod -bpred:bimod 512 on2_shakersort21487220891
	sim-bpred -bpred bimod -bpred:bimod 1024 on2_shakersort21487220891
	sim-bpred -bpred bimod -bpred:bimod 2048 on2_shakersort21487220891
	sim-bpred -bpred 2lev -bpred:2lev 1 512 10 1 on2_shakersort21487220891
	sim-bpred -bpred 2lev -bpred:2lev 1 1024 10 1 on2_shakersort21487220891
	sim-bpred -bpred 2lev -bpred:2lev 1 2048 10 1 on2_shakersort21487220891
	sim-bpred -bpred 2lev -bpred:2lev 1 4096 10 1 on2_shakersort21487220891
	sslittle-na-sstrix-gcc -Wall -O3 -funroll-loops -finline-functions  -DRANDOM_SIZE=65536 -DOFFSET=9 -DSORT=on2_shakersort2 sorts/on2_shakersort2412714709.c simpleMain.c -o on2_shakersort21487220891
	sim-cache -cache:dl1 dl1:256:32:1:l -cache:dl2 dl2:131072:32:1:l -cache:il1 il1:256:32:1:l -cache:il2 dl2 on2_shakersort21487220891
	sim-cache -cache:dl1 dl1:256:32:1:l -cache:dl2 dl2:65536:32:1:l -cache:il1 il1:256:32:1:l -cache:il2 dl2 on2_shakersort21487220891
	sim-cache -cache:dl1 dl1:1:32:256:l -cache:dl2 dl2:1:32:131072:l -cache:il1 il1:1:32:256:l -cache:il2 dl2 on2_shakersort21487220891
	sim-cache -cache:dl1 dl1:1:32:256:l -cache:dl2 dl2:1:32:65536:l -cache:il1 il1:1:32:256:l -cache:il2 dl2 on2_shakersort21487220891
	sim-bpred -bpred bimod -bpred:bimod 512 on2_shakersort21487220891
	sim-bpred -bpred bimod -bpred:bimod 1024 on2_shakersort21487220891
	sim-bpred -bpred bimod -bpred:bimod 2048 on2_shakersort21487220891
	sim-bpred -bpred 2lev -bpred:2lev 1 512 10 1 on2_shakersort21487220891
	sim-bpred -bpred 2lev -bpred:2lev 1 1024 10 1 on2_shakersort21487220891
	sim-bpred -bpred 2lev -bpred:2lev 1 2048 10 1 on2_shakersort21487220891
	sim-bpred -bpred 2lev -bpred:2lev 1 4096 10 1 on2_shakersort21487220891
