Sat Aug  6 11:08:49 2005
Run as: "./do_simple -c random.org9 -o 9 -M 65536 on2_selectsort"
-------------------------------------------------------------------------------------------------
sim-cache                                     4096 |         4096 |         4096 |         4096 |         8192 |         8192 |         8192 |         8192 |        16384 |        16384 |        16384 |        16384 |        32768 |        32768 |        32768 |        32768 |        65536 |        65536 |        65536 |        65536 |
-cache:dl1 dl1:256:32:1:l -cache:dl2 dl2:131072:32:1:l -cache:il1 il1:256:32:1:l -cache:il2 dl2
-cache:dl1 dl1:256:32:1:l -cache:dl2 dl2:65536:32:1:l -cache:il1 il1:256:32:1:l -cache:il2 dl2
-cache:dl1 dl1:1:32:256:l -cache:dl2 dl2:1:32:131072:l -cache:il1 il1:1:32:256:l -cache:il2 dl2
-cache:dl1 dl1:1:32:256:l -cache:dl2 dl2:1:32:65536:l -cache:il1 il1:1:32:256:l -cache:il2 dl2
-------------------------------------------------------------------------------------------------
sim_num_insn                              65130182 |     65130182 |     65130182 |     65130182 |    260283972 |    260283972 |    260283972 |    260283972 |   1040664113 |   1040664113 |   1040664113 |   1040664113 |   4161719963 |   4161719963 |   4161719963 |   4161719963 |  16644977259 |  16644977259 |  16644977259 |  16644977259 |
sim_num_refs                              16793149 |     16793149 |     16793149 |     16793149 |     67137085 |     67137085 |     67137085 |     67137085 |    268488253 |    268488253 |    268488253 |    268488253 |   1073843773 |   1073843773 |   1073843773 |   1073843773 |   4295167549 |   4295167549 |   4295167549 |   4295167549 |
sim_elapsed_time                                16 |           17 |           24 |           21 |           66 |           67 |           80 |           75 |          267 |          267 |          301 |          292 |         1064 |         1066 |         1171 |         1155 |         4258 |         4267 |         4631 |         4590 |
sim_inst_rate                         4070636.3750 | 3831187.1765 | 2713757.5833 | 3101437.2381 | 3943696.5455 | 3884835.4030 | 3253549.6500 | 3470452.9600 | 3897618.4007 | 3897618.4007 | 3457355.8571 | 3563918.1952 | 3911390.9427 | 3904052.4981 | 3553988.0128 | 3603220.7472 | 3909106.9185 | 3900861.7903 | 3594251.1896 | 3626356.7013 |
il1.accesses                              65130182 |     65130182 |     65130182 |     65130182 |    260283972 |    260283972 |    260283972 |    260283972 |   1040664113 |   1040664113 |   1040664113 |   1040664113 |   4161719963 |   4161719963 |   4161719963 |   4161719963 |  16644977259 |  16644977259 |  16644977259 |  16644977259 |
il1.hits                                  65129806 |     65129806 |     65129861 |     65129861 |    260283596 |    260283596 |    260283651 |    260283651 |   1040663727 |   1040663727 |   1040663786 |   1040663786 |   4161719585 |   4161719585 |   4161719640 |   4161719640 |  16644976881 |  16644976881 |  16644976936 |  16644976936 |
il1.misses                                     376 |          376 |          321 |          321 |          376 |          376 |          321 |          321 |          386 |          386 |          327 |          327 |          378 |          378 |          323 |          323 |          378 |          378 |          323 |          323 |
il1.replacements                               190 |          190 |           65 |           65 |          190 |          190 |           65 |           65 |          196 |          196 |           71 |           71 |          192 |          192 |           67 |           67 |          192 |          192 |           67 |           67 |
il1.writebacks                                   0 |            0 |            0 |            0 |            0 |            0 |            0 |            0 |            0 |            0 |            0 |            0 |            0 |            0 |            0 |            0 |            0 |            0 |            0 |            0 |
il1.invalidations                                0 |            0 |            0 |            0 |            0 |            0 |            0 |            0 |            0 |            0 |            0 |            0 |            0 |            0 |            0 |            0 |            0 |            0 |            0 |            0 |
il1.miss_rate                               0.0000 |       0.0000 |       0.0000 |       0.0000 |       0.0000 |       0.0000 |       0.0000 |       0.0000 |       0.0000 |       0.0000 |       0.0000 |       0.0000 |       0.0000 |       0.0000 |       0.0000 |       0.0000 |       0.0000 |       0.0000 |       0.0000 |       0.0000 |
il1.repl_rate                               0.0000 |       0.0000 |       0.0000 |       0.0000 |       0.0000 |       0.0000 |       0.0000 |       0.0000 |       0.0000 |       0.0000 |       0.0000 |       0.0000 |       0.0000 |       0.0000 |       0.0000 |       0.0000 |       0.0000 |       0.0000 |       0.0000 |       0.0000 |
il1.wb_rate                                 0.0000 |       0.0000 |       0.0000 |       0.0000 |       0.0000 |       0.0000 |       0.0000 |       0.0000 |       0.0000 |       0.0000 |       0.0000 |       0.0000 |       0.0000 |       0.0000 |       0.0000 |       0.0000 |       0.0000 |       0.0000 |       0.0000 |       0.0000 |
il1.inv_rate                                0.0000 |       0.0000 |       0.0000 |       0.0000 |       0.0000 |       0.0000 |       0.0000 |       0.0000 |       0.0000 |       0.0000 |       0.0000 |       0.0000 |       0.0000 |       0.0000 |       0.0000 |       0.0000 |       0.0000 |       0.0000 |       0.0000 |       0.0000 |
dl1.accesses                              16809615 |     16809615 |     16809615 |     16809615 |     67169935 |     67169935 |     67169935 |     67169935 |    268553871 |    268553871 |    268553871 |    268553871 |   1073974927 |   1073974927 |   1073974927 |   1073974927 |   4295429775 |   4295429775 |   4295429775 |   4295429775 |
dl1.hits                                  16270220 |     16270220 |     16022478 |     16022478 |     63389794 |     63389794 |     63234621 |     63234621 |    251666250 |    251666250 |    252029056 |    252029056 |   1004322587 |   1004322587 |   1007103715 |   1007103715 |   4013844501 |   4013844501 |   4027200444 |   4027200444 |
dl1.misses                                  539395 |       539395 |       787137 |       787137 |      3780141 |      3780141 |      3935314 |      3935314 |     16887621 |     16887621 |     16524815 |     16524815 |     69652340 |     69652340 |     66871212 |     66871212 |    281585274 |    281585274 |    268229331 |    268229331 |
dl1.replacements                            539139 |       539139 |       786881 |       786881 |      3779885 |      3779885 |      3935058 |      3935058 |     16887365 |     16887365 |     16524559 |     16524559 |     69652084 |     69652084 |     66870956 |     66870956 |    281585018 |    281585018 |    268229075 |    268229075 |
dl1.writebacks                                4220 |         4220 |         5023 |         5023 |        12945 |        12945 |        13717 |        13717 |        30329 |        30329 |        31079 |        31079 |        65158 |        65158 |        65924 |        65924 |       134819 |       134819 |       135524 |       135524 |
dl1.invalidations                                0 |            0 |            0 |            0 |            0 |            0 |            0 |            0 |            0 |            0 |            0 |            0 |            0 |            0 |            0 |            0 |            0 |            0 |            0 |            0 |
dl1.miss_rate                               0.0321 |       0.0321 |       0.0468 |       0.0468 |       0.0563 |       0.0563 |       0.0586 |       0.0586 |       0.0629 |       0.0629 |       0.0615 |       0.0615 |       0.0649 |       0.0649 |       0.0623 |       0.0623 |       0.0656 |       0.0656 |       0.0624 |       0.0624 |
dl1.repl_rate                               0.0321 |       0.0321 |       0.0468 |       0.0468 |       0.0563 |       0.0563 |       0.0586 |       0.0586 |       0.0629 |       0.0629 |       0.0615 |       0.0615 |       0.0649 |       0.0649 |       0.0623 |       0.0623 |       0.0656 |       0.0656 |       0.0624 |       0.0624 |
dl1.wb_rate                                 0.0003 |       0.0003 |       0.0003 |       0.0003 |       0.0002 |       0.0002 |       0.0002 |       0.0002 |       0.0001 |       0.0001 |       0.0001 |       0.0001 |       0.0001 |       0.0001 |       0.0001 |       0.0001 |       0.0000 |       0.0000 |       0.0000 |       0.0000 |
dl1.inv_rate                                0.0000 |       0.0000 |       0.0000 |       0.0000 |       0.0000 |       0.0000 |       0.0000 |       0.0000 |       0.0000 |       0.0000 |       0.0000 |       0.0000 |       0.0000 |       0.0000 |       0.0000 |       0.0000 |       0.0000 |       0.0000 |       0.0000 |       0.0000 |
dl2.accesses                                543991 |       543991 |       792481 |       792481 |      3793462 |      3793462 |      3949352 |      3949352 |     16918336 |     16918336 |     16556221 |     16556221 |     69717876 |     69717876 |     66937459 |     66937459 |    281720471 |    281720471 |    268365178 |    268365178 |
dl2.hits                                    542745 |       542745 |       791237 |       791237 |      3791704 |      3791704 |      3947596 |      3947596 |     16915549 |     16915549 |     16553434 |     16553434 |     69713044 |     69713044 |     66932629 |     66932629 |    281711543 |    281711543 |    268356252 |    268356252 |
dl2.misses                                    1246 |         1246 |         1244 |         1244 |         1758 |         1758 |         1756 |         1756 |         2787 |         2787 |         2787 |         2787 |         4832 |         4832 |         4830 |         4830 |         8928 |         8928 |         8926 |         8926 |
dl2.replacements                                62 |           62 |            0 |            0 |           63 |           63 |            0 |            0 |           60 |           60 |            0 |            0 |           63 |           63 |            0 |            0 |           63 |           63 |            0 |            0 |
dl2.writebacks                                   0 |            0 |            0 |            0 |            0 |            0 |            0 |            0 |            0 |            0 |            0 |            0 |            0 |            0 |            0 |            0 |            0 |            0 |            0 |            0 |
dl2.invalidations                                0 |            0 |            0 |            0 |            0 |            0 |            0 |            0 |            0 |            0 |            0 |            0 |            0 |            0 |            0 |            0 |            0 |            0 |            0 |            0 |
dl2.miss_rate                               0.0023 |       0.0023 |       0.0016 |       0.0016 |       0.0005 |       0.0005 |       0.0004 |       0.0004 |       0.0002 |       0.0002 |       0.0002 |       0.0002 |       0.0001 |       0.0001 |       0.0001 |       0.0001 |       0.0000 |       0.0000 |       0.0000 |       0.0000 |
dl2.repl_rate                               0.0001 |       0.0001 |       0.0000 |       0.0000 |       0.0000 |       0.0000 |       0.0000 |       0.0000 |       0.0000 |       0.0000 |       0.0000 |       0.0000 |       0.0000 |       0.0000 |       0.0000 |       0.0000 |       0.0000 |       0.0000 |       0.0000 |       0.0000 |
dl2.wb_rate                                 0.0000 |       0.0000 |       0.0000 |       0.0000 |       0.0000 |       0.0000 |       0.0000 |       0.0000 |       0.0000 |       0.0000 |       0.0000 |       0.0000 |       0.0000 |       0.0000 |       0.0000 |       0.0000 |       0.0000 |       0.0000 |       0.0000 |       0.0000 |
dl2.inv_rate                                0.0000 |       0.0000 |       0.0000 |       0.0000 |       0.0000 |       0.0000 |       0.0000 |       0.0000 |       0.0000 |       0.0000 |       0.0000 |       0.0000 |       0.0000 |       0.0000 |       0.0000 |       0.0000 |       0.0000 |       0.0000 |       0.0000 |       0.0000 |
itlb.accesses                             65130182 |     65130182 |     65130182 |     65130182 |    260283972 |    260283972 |    260283972 |    260283972 |   1040664113 |   1040664113 |   1040664113 |   1040664113 |   4161719963 |   4161719963 |   4161719963 |   4161719963 |  16644977259 |  16644977259 |  16644977259 |  16644977259 |
itlb.hits                                 65130172 |     65130172 |     65130172 |     65130172 |    260283962 |    260283962 |    260283962 |    260283962 |   1040664103 |   1040664103 |   1040664103 |   1040664103 |   4161719953 |   4161719953 |   4161719953 |   4161719953 |  16644977249 |  16644977249 |  16644977249 |  16644977249 |
itlb.misses                                     10 |           10 |           10 |           10 |           10 |           10 |           10 |           10 |           10 |           10 |           10 |           10 |           10 |           10 |           10 |           10 |           10 |           10 |           10 |           10 |
itlb.replacements                                0 |            0 |            0 |            0 |            0 |            0 |            0 |            0 |            0 |            0 |            0 |            0 |            0 |            0 |            0 |            0 |            0 |            0 |            0 |            0 |
itlb.writebacks                                  0 |            0 |            0 |            0 |            0 |            0 |            0 |            0 |            0 |            0 |            0 |            0 |            0 |            0 |            0 |            0 |            0 |            0 |            0 |            0 |
itlb.invalidations                               0 |            0 |            0 |            0 |            0 |            0 |            0 |            0 |            0 |            0 |            0 |            0 |            0 |            0 |            0 |            0 |            0 |            0 |            0 |            0 |
itlb.miss_rate                              0.0000 |       0.0000 |       0.0000 |       0.0000 |       0.0000 |       0.0000 |       0.0000 |       0.0000 |       0.0000 |       0.0000 |       0.0000 |       0.0000 |       0.0000 |       0.0000 |       0.0000 |       0.0000 |       0.0000 |       0.0000 |       0.0000 |       0.0000 |
itlb.repl_rate                              0.0000 |       0.0000 |       0.0000 |       0.0000 |       0.0000 |       0.0000 |       0.0000 |       0.0000 |       0.0000 |       0.0000 |       0.0000 |       0.0000 |       0.0000 |       0.0000 |       0.0000 |       0.0000 |       0.0000 |       0.0000 |       0.0000 |       0.0000 |
itlb.wb_rate                                0.0000 |       0.0000 |       0.0000 |       0.0000 |       0.0000 |       0.0000 |       0.0000 |       0.0000 |       0.0000 |       0.0000 |       0.0000 |       0.0000 |       0.0000 |       0.0000 |       0.0000 |       0.0000 |       0.0000 |       0.0000 |       0.0000 |       0.0000 |
itlb.inv_rate                               0.0000 |       0.0000 |       0.0000 |       0.0000 |       0.0000 |       0.0000 |       0.0000 |       0.0000 |       0.0000 |       0.0000 |       0.0000 |       0.0000 |       0.0000 |       0.0000 |       0.0000 |       0.0000 |       0.0000 |       0.0000 |       0.0000 |       0.0000 |
dtlb.accesses                             16809615 |     16809615 |     16809615 |     16809615 |     67169935 |     67169935 |     67169935 |     67169935 |    268553871 |    268553871 |    268553871 |    268553871 |   1073974927 |   1073974927 |   1073974927 |   1073974927 |   4295429775 |   4295429775 |   4295429775 |   4295429775 |
dtlb.hits                                 16809604 |     16809604 |     16809604 |     16809604 |     67169920 |     67169920 |     67169920 |     67169920 |    268553848 |    268553848 |    268553848 |    268553848 |   1073974888 |   1073974888 |   1073974888 |   1073974888 |   4295429704 |   4295429704 |   4295429704 |   4295429704 |
dtlb.misses                                     11 |           11 |           11 |           11 |           15 |           15 |           15 |           15 |           23 |           23 |           23 |           23 |           39 |           39 |           39 |           39 |           71 |           71 |           71 |           71 |
dtlb.replacements                                0 |            0 |            0 |            0 |            0 |            0 |            0 |            0 |            0 |            0 |            0 |            0 |            0 |            0 |            0 |            0 |            0 |            0 |            0 |            0 |
dtlb.writebacks                                  0 |            0 |            0 |            0 |            0 |            0 |            0 |            0 |            0 |            0 |            0 |            0 |            0 |            0 |            0 |            0 |            0 |            0 |            0 |            0 |
dtlb.invalidations                               0 |            0 |            0 |            0 |            0 |            0 |            0 |            0 |            0 |            0 |            0 |            0 |            0 |            0 |            0 |            0 |            0 |            0 |            0 |            0 |
dtlb.miss_rate                              0.0000 |       0.0000 |       0.0000 |       0.0000 |       0.0000 |       0.0000 |       0.0000 |       0.0000 |       0.0000 |       0.0000 |       0.0000 |       0.0000 |       0.0000 |       0.0000 |       0.0000 |       0.0000 |       0.0000 |       0.0000 |       0.0000 |       0.0000 |
dtlb.repl_rate                              0.0000 |       0.0000 |       0.0000 |       0.0000 |       0.0000 |       0.0000 |       0.0000 |       0.0000 |       0.0000 |       0.0000 |       0.0000 |       0.0000 |       0.0000 |       0.0000 |       0.0000 |       0.0000 |       0.0000 |       0.0000 |       0.0000 |       0.0000 |
dtlb.wb_rate                                0.0000 |       0.0000 |       0.0000 |       0.0000 |       0.0000 |       0.0000 |       0.0000 |       0.0000 |       0.0000 |       0.0000 |       0.0000 |       0.0000 |       0.0000 |       0.0000 |       0.0000 |       0.0000 |       0.0000 |       0.0000 |       0.0000 |       0.0000 |
dtlb.inv_rate                               0.0000 |       0.0000 |       0.0000 |       0.0000 |       0.0000 |       0.0000 |       0.0000 |       0.0000 |       0.0000 |       0.0000 |       0.0000 |       0.0000 |       0.0000 |       0.0000 |       0.0000 |       0.0000 |       0.0000 |       0.0000 |       0.0000 |       0.0000 |
ld_text_base                            0x00400000 |   0x00400000 |   0x00400000 |   0x00400000 |   0x00400000 |   0x00400000 |   0x00400000 |   0x00400000 |   0x00400000 |   0x00400000 |   0x00400000 |   0x00400000 |   0x00400000 |   0x00400000 |   0x00400000 |   0x00400000 |   0x00400000 |   0x00400000 |   0x00400000 |   0x00400000 |
ld_text_size                                 71456 |        71456 |        71456 |        71456 |        71488 |        71488 |        71488 |        71488 |        71504 |        71504 |        71504 |        71504 |        71520 |        71520 |        71520 |        71520 |        71520 |        71520 |        71520 |        71520 |
ld_data_base                            0x10000000 |   0x10000000 |   0x10000000 |   0x10000000 |   0x10000000 |   0x10000000 |   0x10000000 |   0x10000000 |   0x10000000 |   0x10000000 |   0x10000000 |   0x10000000 |   0x10000000 |   0x10000000 |   0x10000000 |   0x10000000 |   0x10000000 |   0x10000000 |   0x10000000 |   0x10000000 |
ld_data_size                                  8192 |         8192 |         8192 |         8192 |         8192 |         8192 |         8192 |         8192 |         8192 |         8192 |         8192 |         8192 |         8192 |         8192 |         8192 |         8192 |         8192 |         8192 |         8192 |         8192 |
ld_stack_base                           0x7fffc000 |   0x7fffc000 |   0x7fffc000 |   0x7fffc000 |   0x7fffc000 |   0x7fffc000 |   0x7fffc000 |   0x7fffc000 |   0x7fffc000 |   0x7fffc000 |   0x7fffc000 |   0x7fffc000 |   0x7fffc000 |   0x7fffc000 |   0x7fffc000 |   0x7fffc000 |   0x7fffc000 |   0x7fffc000 |   0x7fffc000 |   0x7fffc000 |
ld_stack_size                                16384 |        16384 |        16384 |        16384 |        16384 |        16384 |        16384 |        16384 |        16384 |        16384 |        16384 |        16384 |        16384 |        16384 |        16384 |        16384 |        16384 |        16384 |        16384 |        16384 |
ld_prog_entry                           0x00400140 |   0x00400140 |   0x00400140 |   0x00400140 |   0x00400140 |   0x00400140 |   0x00400140 |   0x00400140 |   0x00400140 |   0x00400140 |   0x00400140 |   0x00400140 |   0x00400140 |   0x00400140 |   0x00400140 |   0x00400140 |   0x00400140 |   0x00400140 |   0x00400140 |   0x00400140 |
ld_environ_base                         0x7fff8000 |   0x7fff8000 |   0x7fff8000 |   0x7fff8000 |   0x7fff8000 |   0x7fff8000 |   0x7fff8000 |   0x7fff8000 |   0x7fff8000 |   0x7fff8000 |   0x7fff8000 |   0x7fff8000 |   0x7fff8000 |   0x7fff8000 |   0x7fff8000 |   0x7fff8000 |   0x7fff8000 |   0x7fff8000 |   0x7fff8000 |   0x7fff8000 |
ld_target_big_endian                             0 |            0 |            0 |            0 |            0 |            0 |            0 |            0 |            0 |            0 |            0 |            0 |            0 |            0 |            0 |            0 |            0 |            0 |            0 |            0 |
mem.page_count                                  29 |           29 |           29 |           29 |           33 |           33 |           33 |           33 |           41 |           41 |           41 |           41 |           57 |           57 |           57 |           57 |           89 |           89 |           89 |           89 |
mem.page_mem                                  116k |         116k |         116k |         116k |         132k |         132k |         132k |         132k |         164k |         164k |         164k |         164k |         228k |         228k |         228k |         228k |         356k |         356k |         356k |         356k |
mem.ptab_misses                                 29 |           29 |           29 |           29 |           33 |           33 |           33 |           33 |           41 |           41 |           41 |           41 |           57 |           57 |           57 |           57 |           89 |           89 |           89 |           89 |
mem.ptab_accesses                        294583270 |    294583270 |    294583270 |    294583270 |   1175919262 |   1175919262 |   1175919262 |   1175919262 |   4700207794 |   4700207794 |   4700207794 |   4700207794 |  18795273402 |  18795273402 |  18795273402 |  18795273402 |  75171212282 |  75171212282 |  75171212282 |  75171212282 |
mem.ptab_miss_rate                          0.0000 |       0.0000 |       0.0000 |       0.0000 |       0.0000 |       0.0000 |       0.0000 |       0.0000 |       0.0000 |       0.0000 |       0.0000 |       0.0000 |       0.0000 |       0.0000 |       0.0000 |       0.0000 |       0.0000 |       0.0000 |       0.0000 |       0.0000 |
-------------------------------------------------------------------------------------------------
sim-bpred                                     4096 |         4096 |         4096 |         4096 |         4096 |         4096 |         4096 |         8192 |         8192 |         8192 |         8192 |         8192 |         8192 |         8192 |        16384 |        16384 |        16384 |        16384 |        16384 |        16384 |        16384 |        32768 |        32768 |        32768 |        32768 |        32768 |        32768 |        32768 |        65536 |        65536 |        65536 |        65536 |        65536 |        65536 |        65536 |
-bpred bimod -bpred:bimod 512
-bpred bimod -bpred:bimod 1024
-bpred bimod -bpred:bimod 2048
-bpred 2lev -bpred:2lev 1 512 10 1
-bpred 2lev -bpred:2lev 1 1024 10 1
-bpred 2lev -bpred:2lev 1 2048 10 1
-bpred 2lev -bpred:2lev 1 4096 10 1
-------------------------------------------------------------------------------------------------
sim_num_insn                              65130182 |     65130182 |     65130182 |     65130182 |     65130182 |     65130182 |     65130182 |    260283972 |    260283972 |    260283972 |    260283972 |    260283972 |    260283972 |    260283972 |   1040664113 |   1040664113 |   1040664113 |   1040664113 |   1040664113 |   1040664113 |   1040664113 |   4161719963 |   4161719963 |   4161719963 |   4161719963 |   4161719963 |   4161719963 |   4161719963 |  16644977259 |  16644977259 |  16644977259 |  16644977259 |  16644977259 |  16644977259 |  16644977259 |
sim_num_refs                              16793149 |     16793149 |     16793149 |     16793149 |     16793149 |     16793149 |     16793149 |     67137085 |     67137085 |     67137085 |     67137085 |     67137085 |     67137085 |     67137085 |    268488253 |    268488253 |    268488253 |    268488253 |    268488253 |    268488253 |    268488253 |   1073843773 |   1073843773 |   1073843773 |   1073843773 |   1073843773 |   1073843773 |   1073843773 |   4295167549 |   4295167549 |   4295167549 |   4295167549 |   4295167549 |   4295167549 |   4295167549 |
sim_elapsed_time                                 8 |            7 |            8 |            7 |            8 |            8 |            8 |           30 |           30 |           30 |           31 |           30 |           31 |           30 |          120 |          120 |          120 |          126 |          123 |          123 |          124 |          485 |          481 |          480 |          515 |          492 |          492 |          492 |         1946 |         1916 |         1915 |         2062 |         1969 |         1970 |         1969 |
sim_inst_rate                         8141272.7500 | 9304311.7143 | 8141272.7500 | 9304311.7143 | 8141272.7500 | 8141272.7500 | 8141272.7500 | 8676132.4000 | 8676132.4000 | 8676132.4000 | 8396257.1613 | 8676132.4000 | 8396257.1613 | 8676132.4000 | 8672200.9417 | 8672200.9417 | 8672200.9417 | 8259238.9921 | 8460683.8455 | 8460683.8455 | 8392452.5242 | 8580865.9031 | 8652224.4553 | 8670249.9229 | 8081009.6369 | 8458780.4126 | 8458780.4126 | 8458780.4126 | 8553431.2739 | 8687357.6508 | 8691894.1300 | 8072248.9132 | 8453518.1610 | 8449227.0350 | 8453518.1610 |
sim_num_branches                          10502888 |     10502888 |     10502888 |     10502888 |     10502888 |     10502888 |     10502888 |     41976552 |     41976552 |     41976552 |     41976552 |     41976552 |     41976552 |     41976552 |    167838440 |    167838440 |    167838440 |    167838440 |    167838440 |    167838440 |    167838440 |    671220456 |    671220456 |    671220456 |    671220456 |    671220456 |    671220456 |    671220456 |   2684617448 |   2684617448 |   2684617448 |   2684617448 |   2684617448 |   2684617448 |   2684617448 |
sim_IPB                                     6.2012 |       6.2012 |       6.2012 |       6.2012 |       6.2012 |       6.2012 |       6.2012 |       6.2007 |       6.2007 |       6.2007 |       6.2007 |       6.2007 |       6.2007 |       6.2007 |       6.2004 |       6.2004 |       6.2004 |       6.2004 |       6.2004 |       6.2004 |       6.2004 |       6.2002 |       6.2002 |       6.2002 |       6.2002 |       6.2002 |       6.2002 |       6.2002 |       6.2001 |       6.2001 |       6.2001 |       6.2001 |       6.2001 |       6.2001 |       6.2001 |
bpred_bimod.lookups                       10502888 |     10502888 |     10502888 |xxxxxxxxxxxxx |xxxxxxxxxxxxx |xxxxxxxxxxxxx |xxxxxxxxxxxxx |     41976552 |     41976552 |     41976552 |xxxxxxxxxxxxx |xxxxxxxxxxxxx |xxxxxxxxxxxxx |xxxxxxxxxxxxx |    167838440 |    167838440 |    167838440 |xxxxxxxxxxxxx |xxxxxxxxxxxxx |xxxxxxxxxxxxx |xxxxxxxxxxxxx |    671220456 |    671220456 |    671220456 |xxxxxxxxxxxxx |xxxxxxxxxxxxx |xxxxxxxxxxxxx |xxxxxxxxxxxxx |   2684617448 |   2684617448 |   2684617448 |
bpred_bimod.updates                       10502888 |     10502888 |     10502888 |xxxxxxxxxxxxx |xxxxxxxxxxxxx |xxxxxxxxxxxxx |xxxxxxxxxxxxx |     41976552 |     41976552 |     41976552 |xxxxxxxxxxxxx |xxxxxxxxxxxxx |xxxxxxxxxxxxx |xxxxxxxxxxxxx |    167838440 |    167838440 |    167838440 |xxxxxxxxxxxxx |xxxxxxxxxxxxx |xxxxxxxxxxxxx |xxxxxxxxxxxxx |    671220456 |    671220456 |    671220456 |xxxxxxxxxxxxx |xxxxxxxxxxxxx |xxxxxxxxxxxxx |xxxxxxxxxxxxx |   2684617448 |   2684617448 |   2684617448 |
bpred_bimod.addr_hits                     10465420 |     10465423 |     10465423 |xxxxxxxxxxxxx |xxxxxxxxxxxxx |xxxxxxxxxxxxx |xxxxxxxxxxxxx |     41895389 |     41895392 |     41895392 |xxxxxxxxxxxxx |xxxxxxxxxxxxx |xxxxxxxxxxxxx |xxxxxxxxxxxxx |    167667325 |    167667328 |    167667328 |xxxxxxxxxxxxx |xxxxxxxxxxxxx |xxxxxxxxxxxxx |xxxxxxxxxxxxx |    670855892 |    670855895 |    670855895 |xxxxxxxxxxxxx |xxxxxxxxxxxxx |xxxxxxxxxxxxx |xxxxxxxxxxxxx |   2683843578 |   2683843581 |   2683843581 |
bpred_bimod.dir_hits                      10465516 |     10465517 |     10465516 |xxxxxxxxxxxxx |xxxxxxxxxxxxx |xxxxxxxxxxxxx |xxxxxxxxxxxxx |     41895483 |     41895485 |     41895485 |xxxxxxxxxxxxx |xxxxxxxxxxxxx |xxxxxxxxxxxxx |xxxxxxxxxxxxx |    167667419 |    167667421 |    167667421 |xxxxxxxxxxxxx |xxxxxxxxxxxxx |xxxxxxxxxxxxx |xxxxxxxxxxxxx |    670855986 |    670855988 |    670855987 |xxxxxxxxxxxxx |xxxxxxxxxxxxx |xxxxxxxxxxxxx |xxxxxxxxxxxxx |   2683843673 |   2683843675 |   2683843674 |
bpred_bimod.misses                           37372 |        37371 |        37372 |xxxxxxxxxxxxx |xxxxxxxxxxxxx |xxxxxxxxxxxxx |xxxxxxxxxxxxx |        81069 |        81067 |        81067 |xxxxxxxxxxxxx |xxxxxxxxxxxxx |xxxxxxxxxxxxx |xxxxxxxxxxxxx |       171021 |       171019 |       171019 |xxxxxxxxxxxxx |xxxxxxxxxxxxx |xxxxxxxxxxxxx |xxxxxxxxxxxxx |       364470 |       364468 |       364469 |xxxxxxxxxxxxx |xxxxxxxxxxxxx |xxxxxxxxxxxxx |xxxxxxxxxxxxx |       773775 |       773773 |       773774 |
bpred_bimod.jr_hits                             57 |           57 |           57 |xxxxxxxxxxxxx |xxxxxxxxxxxxx |xxxxxxxxxxxxx |xxxxxxxxxxxxx |           57 |           57 |           57 |xxxxxxxxxxxxx |xxxxxxxxxxxxx |xxxxxxxxxxxxx |xxxxxxxxxxxxx |           57 |           57 |           57 |xxxxxxxxxxxxx |xxxxxxxxxxxxx |xxxxxxxxxxxxx |xxxxxxxxxxxxx |           57 |           57 |           57 |xxxxxxxxxxxxx |xxxxxxxxxxxxx |xxxxxxxxxxxxx |xxxxxxxxxxxxx |           57 |           57 |           57 |
bpred_bimod.jr_seen                             58 |           58 |           58 |xxxxxxxxxxxxx |xxxxxxxxxxxxx |xxxxxxxxxxxxx |xxxxxxxxxxxxx |           58 |           58 |           58 |xxxxxxxxxxxxx |xxxxxxxxxxxxx |xxxxxxxxxxxxx |xxxxxxxxxxxxx |           58 |           58 |           58 |xxxxxxxxxxxxx |xxxxxxxxxxxxx |xxxxxxxxxxxxx |xxxxxxxxxxxxx |           58 |           58 |           58 |xxxxxxxxxxxxx |xxxxxxxxxxxxx |xxxxxxxxxxxxx |xxxxxxxxxxxxx |           58 |           58 |           58 |
bpred_bimod.jr_non_ras_hits.PP                   0 |            0 |            0 |xxxxxxxxxxxxx |xxxxxxxxxxxxx |xxxxxxxxxxxxx |xxxxxxxxxxxxx |            0 |            0 |            0 |xxxxxxxxxxxxx |xxxxxxxxxxxxx |xxxxxxxxxxxxx |xxxxxxxxxxxxx |            0 |            0 |            0 |xxxxxxxxxxxxx |xxxxxxxxxxxxx |xxxxxxxxxxxxx |xxxxxxxxxxxxx |            0 |            0 |            0 |xxxxxxxxxxxxx |xxxxxxxxxxxxx |xxxxxxxxxxxxx |xxxxxxxxxxxxx |            0 |            0 |            0 |
bpred_bimod.jr_non_ras_seen.PP                   0 |            0 |            0 |xxxxxxxxxxxxx |xxxxxxxxxxxxx |xxxxxxxxxxxxx |xxxxxxxxxxxxx |            0 |            0 |            0 |xxxxxxxxxxxxx |xxxxxxxxxxxxx |xxxxxxxxxxxxx |xxxxxxxxxxxxx |            0 |            0 |            0 |xxxxxxxxxxxxx |xxxxxxxxxxxxx |xxxxxxxxxxxxx |xxxxxxxxxxxxx |            0 |            0 |            0 |xxxxxxxxxxxxx |xxxxxxxxxxxxx |xxxxxxxxxxxxx |xxxxxxxxxxxxx |            0 |            0 |            0 |
bpred_bimod.bpred_addr_rate                 0.9964 |       0.9964 |       0.9964 |xxxxxxxxxxxxx |xxxxxxxxxxxxx |xxxxxxxxxxxxx |xxxxxxxxxxxxx |       0.9981 |       0.9981 |       0.9981 |xxxxxxxxxxxxx |xxxxxxxxxxxxx |xxxxxxxxxxxxx |xxxxxxxxxxxxx |       0.9990 |       0.9990 |       0.9990 |xxxxxxxxxxxxx |xxxxxxxxxxxxx |xxxxxxxxxxxxx |xxxxxxxxxxxxx |       0.9995 |       0.9995 |       0.9995 |xxxxxxxxxxxxx |xxxxxxxxxxxxx |xxxxxxxxxxxxx |xxxxxxxxxxxxx |       0.9997 |       0.9997 |       0.9997 |
bpred_bimod.bpred_dir_rate                  0.9964 |       0.9964 |       0.9964 |xxxxxxxxxxxxx |xxxxxxxxxxxxx |xxxxxxxxxxxxx |xxxxxxxxxxxxx |       0.9981 |       0.9981 |       0.9981 |xxxxxxxxxxxxx |xxxxxxxxxxxxx |xxxxxxxxxxxxx |xxxxxxxxxxxxx |       0.9990 |       0.9990 |       0.9990 |xxxxxxxxxxxxx |xxxxxxxxxxxxx |xxxxxxxxxxxxx |xxxxxxxxxxxxx |       0.9995 |       0.9995 |       0.9995 |xxxxxxxxxxxxx |xxxxxxxxxxxxx |xxxxxxxxxxxxx |xxxxxxxxxxxxx |       0.9997 |       0.9997 |       0.9997 |
bpred_bimod.bpred_jr_rate                   0.9828 |       0.9828 |       0.9828 |xxxxxxxxxxxxx |xxxxxxxxxxxxx |xxxxxxxxxxxxx |xxxxxxxxxxxxx |       0.9828 |       0.9828 |       0.9828 |xxxxxxxxxxxxx |xxxxxxxxxxxxx |xxxxxxxxxxxxx |xxxxxxxxxxxxx |       0.9828 |       0.9828 |       0.9828 |xxxxxxxxxxxxx |xxxxxxxxxxxxx |xxxxxxxxxxxxx |xxxxxxxxxxxxx |       0.9828 |       0.9828 |       0.9828 |xxxxxxxxxxxxx |xxxxxxxxxxxxx |xxxxxxxxxxxxx |xxxxxxxxxxxxx |       0.9828 |       0.9828 |       0.9828 |
bpred_bimod.bpred_jr_non_ras_rate.PP       <error: |      <error: |      <error: |xxxxxxxxxxxxx |xxxxxxxxxxxxx |xxxxxxxxxxxxx |xxxxxxxxxxxxx |      <error: |      <error: |      <error: |xxxxxxxxxxxxx |xxxxxxxxxxxxx |xxxxxxxxxxxxx |xxxxxxxxxxxxx |      <error: |      <error: |      <error: |xxxxxxxxxxxxx |xxxxxxxxxxxxx |xxxxxxxxxxxxx |xxxxxxxxxxxxx |      <error: |      <error: |      <error: |xxxxxxxxxxxxx |xxxxxxxxxxxxx |xxxxxxxxxxxxx |xxxxxxxxxxxxx |      <error: |      <error: |      <error: |
bpred_bimod.retstack_pushes                     60 |           60 |           60 |xxxxxxxxxxxxx |xxxxxxxxxxxxx |xxxxxxxxxxxxx |xxxxxxxxxxxxx |           60 |           60 |           60 |xxxxxxxxxxxxx |xxxxxxxxxxxxx |xxxxxxxxxxxxx |xxxxxxxxxxxxx |           60 |           60 |           60 |xxxxxxxxxxxxx |xxxxxxxxxxxxx |xxxxxxxxxxxxx |xxxxxxxxxxxxx |           60 |           60 |           60 |xxxxxxxxxxxxx |xxxxxxxxxxxxx |xxxxxxxxxxxxx |xxxxxxxxxxxxx |           60 |           60 |           60 |
bpred_bimod.retstack_pops                       58 |           58 |           58 |xxxxxxxxxxxxx |xxxxxxxxxxxxx |xxxxxxxxxxxxx |xxxxxxxxxxxxx |           58 |           58 |           58 |xxxxxxxxxxxxx |xxxxxxxxxxxxx |xxxxxxxxxxxxx |xxxxxxxxxxxxx |           58 |           58 |           58 |xxxxxxxxxxxxx |xxxxxxxxxxxxx |xxxxxxxxxxxxx |xxxxxxxxxxxxx |           58 |           58 |           58 |xxxxxxxxxxxxx |xxxxxxxxxxxxx |xxxxxxxxxxxxx |xxxxxxxxxxxxx |           58 |           58 |           58 |
bpred_bimod.used_ras.PP                         58 |           58 |           58 |xxxxxxxxxxxxx |xxxxxxxxxxxxx |xxxxxxxxxxxxx |xxxxxxxxxxxxx |           58 |           58 |           58 |xxxxxxxxxxxxx |xxxxxxxxxxxxx |xxxxxxxxxxxxx |xxxxxxxxxxxxx |           58 |           58 |           58 |xxxxxxxxxxxxx |xxxxxxxxxxxxx |xxxxxxxxxxxxx |xxxxxxxxxxxxx |           58 |           58 |           58 |xxxxxxxxxxxxx |xxxxxxxxxxxxx |xxxxxxxxxxxxx |xxxxxxxxxxxxx |           58 |           58 |           58 |
bpred_bimod.ras_hits.PP                         57 |           57 |           57 |xxxxxxxxxxxxx |xxxxxxxxxxxxx |xxxxxxxxxxxxx |xxxxxxxxxxxxx |           57 |           57 |           57 |xxxxxxxxxxxxx |xxxxxxxxxxxxx |xxxxxxxxxxxxx |xxxxxxxxxxxxx |           57 |           57 |           57 |xxxxxxxxxxxxx |xxxxxxxxxxxxx |xxxxxxxxxxxxx |xxxxxxxxxxxxx |           57 |           57 |           57 |xxxxxxxxxxxxx |xxxxxxxxxxxxx |xxxxxxxxxxxxx |xxxxxxxxxxxxx |           57 |           57 |           57 |
bpred_bimod.ras_rate.PP                     0.9828 |       0.9828 |       0.9828 |xxxxxxxxxxxxx |xxxxxxxxxxxxx |xxxxxxxxxxxxx |xxxxxxxxxxxxx |       0.9828 |       0.9828 |       0.9828 |xxxxxxxxxxxxx |xxxxxxxxxxxxx |xxxxxxxxxxxxx |xxxxxxxxxxxxx |       0.9828 |       0.9828 |       0.9828 |xxxxxxxxxxxxx |xxxxxxxxxxxxx |xxxxxxxxxxxxx |xxxxxxxxxxxxx |       0.9828 |       0.9828 |       0.9828 |xxxxxxxxxxxxx |xxxxxxxxxxxxx |xxxxxxxxxxxxx |xxxxxxxxxxxxx |       0.9828 |       0.9828 |       0.9828 |
bpred_2lev.lookups                   xxxxxxxxxxxxx |xxxxxxxxxxxxx |xxxxxxxxxxxxx |     10502888 |     10502888 |     10502888 |     10502888 |xxxxxxxxxxxxx |xxxxxxxxxxxxx |xxxxxxxxxxxxx |     41976552 |     41976552 |     41976552 |     41976552 |xxxxxxxxxxxxx |xxxxxxxxxxxxx |xxxxxxxxxxxxx |    167838440 |    167838440 |    167838440 |    167838440 |xxxxxxxxxxxxx |xxxxxxxxxxxxx |xxxxxxxxxxxxx |    671220456 |    671220456 |    671220456 |    671220456 |xxxxxxxxxxxxx |xxxxxxxxxxxxx |xxxxxxxxxxxxx |   2684617448 |   2684617448 |   2684617448 |   2684617448 |
bpred_2lev.updates                   xxxxxxxxxxxxx |xxxxxxxxxxxxx |xxxxxxxxxxxxx |     10502888 |     10502888 |     10502888 |     10502888 |xxxxxxxxxxxxx |xxxxxxxxxxxxx |xxxxxxxxxxxxx |     41976552 |     41976552 |     41976552 |     41976552 |xxxxxxxxxxxxx |xxxxxxxxxxxxx |xxxxxxxxxxxxx |    167838440 |    167838440 |    167838440 |    167838440 |xxxxxxxxxxxxx |xxxxxxxxxxxxx |xxxxxxxxxxxxx |    671220456 |    671220456 |    671220456 |    671220456 |xxxxxxxxxxxxx |xxxxxxxxxxxxx |xxxxxxxxxxxxx |   2684617448 |   2684617448 |   2684617448 |   2684617448 |
bpred_2lev.addr_hits                 xxxxxxxxxxxxx |xxxxxxxxxxxxx |xxxxxxxxxxxxx |     10464502 |     10464851 |     10465276 |     10465307 |xxxxxxxxxxxxx |xxxxxxxxxxxxx |xxxxxxxxxxxxx |     41894078 |     41894499 |     41895339 |     41895432 |xxxxxxxxxxxxx |xxxxxxxxxxxxx |xxxxxxxxxxxxx |    167665017 |    167667103 |    167668903 |    167669076 |xxxxxxxxxxxxx |xxxxxxxxxxxxx |xxxxxxxxxxxxx |    670850386 |    670854584 |    670858199 |    670858445 |xxxxxxxxxxxxx |xxxxxxxxxxxxx |xxxxxxxxxxxxx |   2683834651 |   2683843042 |   2683851065 |   2683851501 |
bpred_2lev.dir_hits                  xxxxxxxxxxxxx |xxxxxxxxxxxxx |xxxxxxxxxxxxx |     10464621 |     10464968 |     10465380 |     10465405 |xxxxxxxxxxxxx |xxxxxxxxxxxxx |xxxxxxxxxxxxx |     41894200 |     41894622 |     41895448 |     41895532 |xxxxxxxxxxxxx |xxxxxxxxxxxxx |xxxxxxxxxxxxx |    167665141 |    167667225 |    167669020 |    167669185 |xxxxxxxxxxxxx |xxxxxxxxxxxxx |xxxxxxxxxxxxx |    670850510 |    670854707 |    670858320 |    670858551 |xxxxxxxxxxxxx |xxxxxxxxxxxxx |xxxxxxxxxxxxx |   2683834774 |   2683843167 |   2683851183 |   2683851606 |
bpred_2lev.misses                    xxxxxxxxxxxxx |xxxxxxxxxxxxx |xxxxxxxxxxxxx |        38267 |        37920 |        37508 |        37483 |xxxxxxxxxxxxx |xxxxxxxxxxxxx |xxxxxxxxxxxxx |        82352 |        81930 |        81104 |        81020 |xxxxxxxxxxxxx |xxxxxxxxxxxxx |xxxxxxxxxxxxx |       173299 |       171215 |       169420 |       169255 |xxxxxxxxxxxxx |xxxxxxxxxxxxx |xxxxxxxxxxxxx |       369946 |       365749 |       362136 |       361905 |xxxxxxxxxxxxx |xxxxxxxxxxxxx |xxxxxxxxxxxxx |       782674 |       774281 |       766265 |       765842 |
bpred_2lev.jr_hits                   xxxxxxxxxxxxx |xxxxxxxxxxxxx |xxxxxxxxxxxxx |           57 |           57 |           57 |           57 |xxxxxxxxxxxxx |xxxxxxxxxxxxx |xxxxxxxxxxxxx |           57 |           57 |           57 |           57 |xxxxxxxxxxxxx |xxxxxxxxxxxxx |xxxxxxxxxxxxx |           57 |           57 |           57 |           57 |xxxxxxxxxxxxx |xxxxxxxxxxxxx |xxxxxxxxxxxxx |           57 |           57 |           57 |           57 |xxxxxxxxxxxxx |xxxxxxxxxxxxx |xxxxxxxxxxxxx |           57 |           57 |           57 |           57 |
bpred_2lev.jr_seen                   xxxxxxxxxxxxx |xxxxxxxxxxxxx |xxxxxxxxxxxxx |           58 |           58 |           58 |           58 |xxxxxxxxxxxxx |xxxxxxxxxxxxx |xxxxxxxxxxxxx |           58 |           58 |           58 |           58 |xxxxxxxxxxxxx |xxxxxxxxxxxxx |xxxxxxxxxxxxx |           58 |           58 |           58 |           58 |xxxxxxxxxxxxx |xxxxxxxxxxxxx |xxxxxxxxxxxxx |           58 |           58 |           58 |           58 |xxxxxxxxxxxxx |xxxxxxxxxxxxx |xxxxxxxxxxxxx |           58 |           58 |           58 |           58 |
bpred_2lev.jr_non_ras_hits.PP        xxxxxxxxxxxxx |xxxxxxxxxxxxx |xxxxxxxxxxxxx |            0 |            0 |            0 |            0 |xxxxxxxxxxxxx |xxxxxxxxxxxxx |xxxxxxxxxxxxx |            0 |            0 |            0 |            0 |xxxxxxxxxxxxx |xxxxxxxxxxxxx |xxxxxxxxxxxxx |            0 |            0 |            0 |            0 |xxxxxxxxxxxxx |xxxxxxxxxxxxx |xxxxxxxxxxxxx |            0 |            0 |            0 |            0 |xxxxxxxxxxxxx |xxxxxxxxxxxxx |xxxxxxxxxxxxx |            0 |            0 |            0 |            0 |
bpred_2lev.jr_non_ras_seen.PP        xxxxxxxxxxxxx |xxxxxxxxxxxxx |xxxxxxxxxxxxx |            0 |            0 |            0 |            0 |xxxxxxxxxxxxx |xxxxxxxxxxxxx |xxxxxxxxxxxxx |            0 |            0 |            0 |            0 |xxxxxxxxxxxxx |xxxxxxxxxxxxx |xxxxxxxxxxxxx |            0 |            0 |            0 |            0 |xxxxxxxxxxxxx |xxxxxxxxxxxxx |xxxxxxxxxxxxx |            0 |            0 |            0 |            0 |xxxxxxxxxxxxx |xxxxxxxxxxxxx |xxxxxxxxxxxxx |            0 |            0 |            0 |            0 |
bpred_2lev.bpred_addr_rate           xxxxxxxxxxxxx |xxxxxxxxxxxxx |xxxxxxxxxxxxx |       0.9963 |       0.9964 |       0.9964 |       0.9964 |xxxxxxxxxxxxx |xxxxxxxxxxxxx |xxxxxxxxxxxxx |       0.9980 |       0.9980 |       0.9981 |       0.9981 |xxxxxxxxxxxxx |xxxxxxxxxxxxx |xxxxxxxxxxxxx |       0.9990 |       0.9990 |       0.9990 |       0.9990 |xxxxxxxxxxxxx |xxxxxxxxxxxxx |xxxxxxxxxxxxx |       0.9994 |       0.9995 |       0.9995 |       0.9995 |xxxxxxxxxxxxx |xxxxxxxxxxxxx |xxxxxxxxxxxxx |       0.9997 |       0.9997 |       0.9997 |       0.9997 |
bpred_2lev.bpred_dir_rate            xxxxxxxxxxxxx |xxxxxxxxxxxxx |xxxxxxxxxxxxx |       0.9964 |       0.9964 |       0.9964 |       0.9964 |xxxxxxxxxxxxx |xxxxxxxxxxxxx |xxxxxxxxxxxxx |       0.9980 |       0.9980 |       0.9981 |       0.9981 |xxxxxxxxxxxxx |xxxxxxxxxxxxx |xxxxxxxxxxxxx |       0.9990 |       0.9990 |       0.9990 |       0.9990 |xxxxxxxxxxxxx |xxxxxxxxxxxxx |xxxxxxxxxxxxx |       0.9994 |       0.9995 |       0.9995 |       0.9995 |xxxxxxxxxxxxx |xxxxxxxxxxxxx |xxxxxxxxxxxxx |       0.9997 |       0.9997 |       0.9997 |       0.9997 |
bpred_2lev.bpred_jr_rate             xxxxxxxxxxxxx |xxxxxxxxxxxxx |xxxxxxxxxxxxx |       0.9828 |       0.9828 |       0.9828 |       0.9828 |xxxxxxxxxxxxx |xxxxxxxxxxxxx |xxxxxxxxxxxxx |       0.9828 |       0.9828 |       0.9828 |       0.9828 |xxxxxxxxxxxxx |xxxxxxxxxxxxx |xxxxxxxxxxxxx |       0.9828 |       0.9828 |       0.9828 |       0.9828 |xxxxxxxxxxxxx |xxxxxxxxxxxxx |xxxxxxxxxxxxx |       0.9828 |       0.9828 |       0.9828 |       0.9828 |xxxxxxxxxxxxx |xxxxxxxxxxxxx |xxxxxxxxxxxxx |       0.9828 |       0.9828 |       0.9828 |       0.9828 |
bpred_2lev.bpred_jr_non_ras_rate.PP  xxxxxxxxxxxxx |xxxxxxxxxxxxx |xxxxxxxxxxxxx |      <error: |      <error: |      <error: |      <error: |xxxxxxxxxxxxx |xxxxxxxxxxxxx |xxxxxxxxxxxxx |      <error: |      <error: |      <error: |      <error: |xxxxxxxxxxxxx |xxxxxxxxxxxxx |xxxxxxxxxxxxx |      <error: |      <error: |      <error: |      <error: |xxxxxxxxxxxxx |xxxxxxxxxxxxx |xxxxxxxxxxxxx |      <error: |      <error: |      <error: |      <error: |xxxxxxxxxxxxx |xxxxxxxxxxxxx |xxxxxxxxxxxxx |      <error: |      <error: |      <error: |      <error: |
bpred_2lev.retstack_pushes           xxxxxxxxxxxxx |xxxxxxxxxxxxx |xxxxxxxxxxxxx |           60 |           60 |           60 |           60 |xxxxxxxxxxxxx |xxxxxxxxxxxxx |xxxxxxxxxxxxx |           60 |           60 |           60 |           60 |xxxxxxxxxxxxx |xxxxxxxxxxxxx |xxxxxxxxxxxxx |           60 |           60 |           60 |           60 |xxxxxxxxxxxxx |xxxxxxxxxxxxx |xxxxxxxxxxxxx |           60 |           60 |           60 |           60 |xxxxxxxxxxxxx |xxxxxxxxxxxxx |xxxxxxxxxxxxx |           60 |           60 |           60 |           60 |
bpred_2lev.retstack_pops             xxxxxxxxxxxxx |xxxxxxxxxxxxx |xxxxxxxxxxxxx |           58 |           58 |           58 |           58 |xxxxxxxxxxxxx |xxxxxxxxxxxxx |xxxxxxxxxxxxx |           58 |           58 |           58 |           58 |xxxxxxxxxxxxx |xxxxxxxxxxxxx |xxxxxxxxxxxxx |           58 |           58 |           58 |           58 |xxxxxxxxxxxxx |xxxxxxxxxxxxx |xxxxxxxxxxxxx |           58 |           58 |           58 |           58 |xxxxxxxxxxxxx |xxxxxxxxxxxxx |xxxxxxxxxxxxx |           58 |           58 |           58 |           58 |
bpred_2lev.used_ras.PP               xxxxxxxxxxxxx |xxxxxxxxxxxxx |xxxxxxxxxxxxx |           58 |           58 |           58 |           58 |xxxxxxxxxxxxx |xxxxxxxxxxxxx |xxxxxxxxxxxxx |           58 |           58 |           58 |           58 |xxxxxxxxxxxxx |xxxxxxxxxxxxx |xxxxxxxxxxxxx |           58 |           58 |           58 |           58 |xxxxxxxxxxxxx |xxxxxxxxxxxxx |xxxxxxxxxxxxx |           58 |           58 |           58 |           58 |xxxxxxxxxxxxx |xxxxxxxxxxxxx |xxxxxxxxxxxxx |           58 |           58 |           58 |           58 |
bpred_2lev.ras_hits.PP               xxxxxxxxxxxxx |xxxxxxxxxxxxx |xxxxxxxxxxxxx |           57 |           57 |           57 |           57 |xxxxxxxxxxxxx |xxxxxxxxxxxxx |xxxxxxxxxxxxx |           57 |           57 |           57 |           57 |xxxxxxxxxxxxx |xxxxxxxxxxxxx |xxxxxxxxxxxxx |           57 |           57 |           57 |           57 |xxxxxxxxxxxxx |xxxxxxxxxxxxx |xxxxxxxxxxxxx |           57 |           57 |           57 |           57 |xxxxxxxxxxxxx |xxxxxxxxxxxxx |xxxxxxxxxxxxx |           57 |           57 |           57 |           57 |
bpred_2lev.ras_rate.PP               xxxxxxxxxxxxx |xxxxxxxxxxxxx |xxxxxxxxxxxxx |       0.9828 |       0.9828 |       0.9828 |       0.9828 |xxxxxxxxxxxxx |xxxxxxxxxxxxx |xxxxxxxxxxxxx |       0.9828 |       0.9828 |       0.9828 |       0.9828 |xxxxxxxxxxxxx |xxxxxxxxxxxxx |xxxxxxxxxxxxx |       0.9828 |       0.9828 |       0.9828 |       0.9828 |xxxxxxxxxxxxx |xxxxxxxxxxxxx |xxxxxxxxxxxxx |       0.9828 |       0.9828 |       0.9828 |       0.9828 |xxxxxxxxxxxxx |xxxxxxxxxxxxx |xxxxxxxxxxxxx |       0.9828 |       0.9828 |       0.9828 |       0.9828 |

Command list: 
	sslittle-na-sstrix-gcc -Wall -O3 -funroll-loops -finline-functions  -DRANDOM_SIZE=4096 -DOFFSET=9 -DSORT=on2_selectsort sorts/on2_selectsort1018827139.c simpleMain.c -o on2_selectsort864063665
	sim-cache -cache:dl1 dl1:256:32:1:l -cache:dl2 dl2:131072:32:1:l -cache:il1 il1:256:32:1:l -cache:il2 dl2 on2_selectsort864063665
	sim-cache -cache:dl1 dl1:256:32:1:l -cache:dl2 dl2:65536:32:1:l -cache:il1 il1:256:32:1:l -cache:il2 dl2 on2_selectsort864063665
	sim-cache -cache:dl1 dl1:1:32:256:l -cache:dl2 dl2:1:32:131072:l -cache:il1 il1:1:32:256:l -cache:il2 dl2 on2_selectsort864063665
	sim-cache -cache:dl1 dl1:1:32:256:l -cache:dl2 dl2:1:32:65536:l -cache:il1 il1:1:32:256:l -cache:il2 dl2 on2_selectsort864063665
	sim-bpred -bpred bimod -bpred:bimod 512 on2_selectsort864063665
	sim-bpred -bpred bimod -bpred:bimod 1024 on2_selectsort864063665
	sim-bpred -bpred bimod -bpred:bimod 2048 on2_selectsort864063665
	sim-bpred -bpred 2lev -bpred:2lev 1 512 10 1 on2_selectsort864063665
	sim-bpred -bpred 2lev -bpred:2lev 1 1024 10 1 on2_selectsort864063665
	sim-bpred -bpred 2lev -bpred:2lev 1 2048 10 1 on2_selectsort864063665
	sim-bpred -bpred 2lev -bpred:2lev 1 4096 10 1 on2_selectsort864063665
	sslittle-na-sstrix-gcc -Wall -O3 -funroll-loops -finline-functions  -DRANDOM_SIZE=8192 -DOFFSET=9 -DSORT=on2_selectsort sorts/on2_selectsort1018827139.c simpleMain.c -o on2_selectsort864063665
	sim-cache -cache:dl1 dl1:256:32:1:l -cache:dl2 dl2:131072:32:1:l -cache:il1 il1:256:32:1:l -cache:il2 dl2 on2_selectsort864063665
	sim-cache -cache:dl1 dl1:256:32:1:l -cache:dl2 dl2:65536:32:1:l -cache:il1 il1:256:32:1:l -cache:il2 dl2 on2_selectsort864063665
	sim-cache -cache:dl1 dl1:1:32:256:l -cache:dl2 dl2:1:32:131072:l -cache:il1 il1:1:32:256:l -cache:il2 dl2 on2_selectsort864063665
	sim-cache -cache:dl1 dl1:1:32:256:l -cache:dl2 dl2:1:32:65536:l -cache:il1 il1:1:32:256:l -cache:il2 dl2 on2_selectsort864063665
	sim-bpred -bpred bimod -bpred:bimod 512 on2_selectsort864063665
	sim-bpred -bpred bimod -bpred:bimod 1024 on2_selectsort864063665
	sim-bpred -bpred bimod -bpred:bimod 2048 on2_selectsort864063665
	sim-bpred -bpred 2lev -bpred:2lev 1 512 10 1 on2_selectsort864063665
	sim-bpred -bpred 2lev -bpred:2lev 1 1024 10 1 on2_selectsort864063665
	sim-bpred -bpred 2lev -bpred:2lev 1 2048 10 1 on2_selectsort864063665
	sim-bpred -bpred 2lev -bpred:2lev 1 4096 10 1 on2_selectsort864063665
	sslittle-na-sstrix-gcc -Wall -O3 -funroll-loops -finline-functions  -DRANDOM_SIZE=16384 -DOFFSET=9 -DSORT=on2_selectsort sorts/on2_selectsort1018827139.c simpleMain.c -o on2_selectsort864063665
	sim-cache -cache:dl1 dl1:256:32:1:l -cache:dl2 dl2:131072:32:1:l -cache:il1 il1:256:32:1:l -cache:il2 dl2 on2_selectsort864063665
	sim-cache -cache:dl1 dl1:256:32:1:l -cache:dl2 dl2:65536:32:1:l -cache:il1 il1:256:32:1:l -cache:il2 dl2 on2_selectsort864063665
	sim-cache -cache:dl1 dl1:1:32:256:l -cache:dl2 dl2:1:32:131072:l -cache:il1 il1:1:32:256:l -cache:il2 dl2 on2_selectsort864063665
	sim-cache -cache:dl1 dl1:1:32:256:l -cache:dl2 dl2:1:32:65536:l -cache:il1 il1:1:32:256:l -cache:il2 dl2 on2_selectsort864063665
	sim-bpred -bpred bimod -bpred:bimod 512 on2_selectsort864063665
	sim-bpred -bpred bimod -bpred:bimod 1024 on2_selectsort864063665
	sim-bpred -bpred bimod -bpred:bimod 2048 on2_selectsort864063665
	sim-bpred -bpred 2lev -bpred:2lev 1 512 10 1 on2_selectsort864063665
	sim-bpred -bpred 2lev -bpred:2lev 1 1024 10 1 on2_selectsort864063665
	sim-bpred -bpred 2lev -bpred:2lev 1 2048 10 1 on2_selectsort864063665
	sim-bpred -bpred 2lev -bpred:2lev 1 4096 10 1 on2_selectsort864063665
	sslittle-na-sstrix-gcc -Wall -O3 -funroll-loops -finline-functions  -DRANDOM_SIZE=32768 -DOFFSET=9 -DSORT=on2_selectsort sorts/on2_selectsort1018827139.c simpleMain.c -o on2_selectsort864063665
	sim-cache -cache:dl1 dl1:256:32:1:l -cache:dl2 dl2:131072:32:1:l -cache:il1 il1:256:32:1:l -cache:il2 dl2 on2_selectsort864063665
	sim-cache -cache:dl1 dl1:256:32:1:l -cache:dl2 dl2:65536:32:1:l -cache:il1 il1:256:32:1:l -cache:il2 dl2 on2_selectsort864063665
	sim-cache -cache:dl1 dl1:1:32:256:l -cache:dl2 dl2:1:32:131072:l -cache:il1 il1:1:32:256:l -cache:il2 dl2 on2_selectsort864063665
	sim-cache -cache:dl1 dl1:1:32:256:l -cache:dl2 dl2:1:32:65536:l -cache:il1 il1:1:32:256:l -cache:il2 dl2 on2_selectsort864063665
	sim-bpred -bpred bimod -bpred:bimod 512 on2_selectsort864063665
	sim-bpred -bpred bimod -bpred:bimod 1024 on2_selectsort864063665
	sim-bpred -bpred bimod -bpred:bimod 2048 on2_selectsort864063665
	sim-bpred -bpred 2lev -bpred:2lev 1 512 10 1 on2_selectsort864063665
	sim-bpred -bpred 2lev -bpred:2lev 1 1024 10 1 on2_selectsort864063665
	sim-bpred -bpred 2lev -bpred:2lev 1 2048 10 1 on2_selectsort864063665
	sim-bpred -bpred 2lev -bpred:2lev 1 4096 10 1 on2_selectsort864063665
	sslittle-na-sstrix-gcc -Wall -O3 -funroll-loops -finline-functions  -DRANDOM_SIZE=65536 -DOFFSET=9 -DSORT=on2_selectsort sorts/on2_selectsort1018827139.c simpleMain.c -o on2_selectsort864063665
	sim-cache -cache:dl1 dl1:256:32:1:l -cache:dl2 dl2:131072:32:1:l -cache:il1 il1:256:32:1:l -cache:il2 dl2 on2_selectsort864063665
	sim-cache -cache:dl1 dl1:256:32:1:l -cache:dl2 dl2:65536:32:1:l -cache:il1 il1:256:32:1:l -cache:il2 dl2 on2_selectsort864063665
	sim-cache -cache:dl1 dl1:1:32:256:l -cache:dl2 dl2:1:32:131072:l -cache:il1 il1:1:32:256:l -cache:il2 dl2 on2_selectsort864063665
	sim-cache -cache:dl1 dl1:1:32:256:l -cache:dl2 dl2:1:32:65536:l -cache:il1 il1:1:32:256:l -cache:il2 dl2 on2_selectsort864063665
	sim-bpred -bpred bimod -bpred:bimod 512 on2_selectsort864063665
	sim-bpred -bpred bimod -bpred:bimod 1024 on2_selectsort864063665
	sim-bpred -bpred bimod -bpred:bimod 2048 on2_selectsort864063665
	sim-bpred -bpred 2lev -bpred:2lev 1 512 10 1 on2_selectsort864063665
	sim-bpred -bpred 2lev -bpred:2lev 1 1024 10 1 on2_selectsort864063665
	sim-bpred -bpred 2lev -bpred:2lev 1 2048 10 1 on2_selectsort864063665
	sim-bpred -bpred 2lev -bpred:2lev 1 4096 10 1 on2_selectsort864063665
