Sat Jul 23 22:43:58 2005
Run as: "./do_simple -c random.org6 -o 6 -M 65536 shakersort"
-------------------------------------------------------------------------------------------------
sim-cache                                     4096 |         4096 |         4096 |         4096 |         8192 |         8192 |         8192 |         8192 |        16384 |        16384 |        16384 |        16384 |        32768 |        32768 |        32768 |        32768 |        65536 |        65536 |        65536 |        65536 |
-cache:dl1 dl1:256:32:1:l -cache:dl2 dl2:131072:32:1:l -cache:il1 il1:256:32:1:l -cache:il2 dl2
-cache:dl1 dl1:256:32:1:l -cache:dl2 dl2:65536:32:1:l -cache:il1 il1:256:32:1:l -cache:il2 dl2
-cache:dl1 dl1:1:32:256:l -cache:dl2 dl2:1:32:131072:l -cache:il1 il1:1:32:256:l -cache:il2 dl2
-cache:dl1 dl1:1:32:256:l -cache:dl2 dl2:1:32:65536:l -cache:il1 il1:1:32:256:l -cache:il2 dl2
-------------------------------------------------------------------------------------------------
sim_num_insn                              46887436 |     46887436 |     46887436 |     46887436 |    188161131 |    188161131 |    188161131 |    188161131 |    753646447 |    753646447 |    753646447 |    753646447 |   2981487730 |   2981487730 |   2981487730 |   2981487730 |  11985108070 |  11985108070 |  11985108070 |  11985108070 |
sim_num_refs                              21042933 |     21042933 |     21042933 |     21042933 |     84488055 |     84488055 |     84488055 |     84488055 |    338547853 |    338547853 |    338547853 |    338547853 |   1339856195 |   1339856195 |   1339856195 |   1339856195 |   5384657867 |   5384657867 |   5384657867 |   5384657867 |
sim_elapsed_time                                14 |           13 |           20 |           17 |           55 |           55 |           63 |           58 |          246 |          245 |          231 |          222 |         1027 |         1027 |          884 |          868 |         4093 |         4102 |         3493 |         3459 |
sim_inst_rate                         3349102.5714 | 3606725.8462 | 2344371.8000 | 2758084.4706 | 3421111.4727 | 3421111.4727 | 2986684.6190 | 3244157.4310 | 3063603.4431 | 3076107.9469 | 3262538.7316 | 3394803.8153 | 2903103.9241 | 2903103.9241 | 3372723.6765 | 3434893.6982 | 2928196.4500 | 2921771.8357 | 3431178.9493 | 3464905.4842 |
il1.accesses                              46887436 |     46887436 |     46887436 |     46887436 |    188161131 |    188161131 |    188161131 |    188161131 |    753646447 |    753646447 |    753646447 |    753646447 |   2981487730 |   2981487730 |   2981487730 |   2981487730 |  11985108070 |  11985108070 |  11985108070 |  11985108070 |
il1.hits                                  46887037 |     46887037 |     46887098 |     46887098 |    188160729 |    188160729 |    188160791 |    188160791 |    753646054 |    753646054 |    753646111 |    753646111 |   2981487327 |   2981487327 |   2981487389 |   2981487389 |  11985107667 |  11985107667 |  11985107729 |  11985107729 |
il1.misses                                     399 |          399 |          338 |          338 |          402 |          402 |          340 |          340 |          393 |          393 |          336 |          336 |          403 |          403 |          341 |          341 |          403 |          403 |          341 |          341 |
il1.replacements                               209 |          209 |           82 |           82 |          212 |          212 |           84 |           84 |          207 |          207 |           80 |           80 |          212 |          212 |           85 |           85 |          212 |          212 |           85 |           85 |
il1.writebacks                                   0 |            0 |            0 |            0 |            0 |            0 |            0 |            0 |            0 |            0 |            0 |            0 |            0 |            0 |            0 |            0 |            0 |            0 |            0 |            0 |
il1.invalidations                                0 |            0 |            0 |            0 |            0 |            0 |            0 |            0 |            0 |            0 |            0 |            0 |            0 |            0 |            0 |            0 |            0 |            0 |            0 |            0 |
il1.miss_rate                               0.0000 |       0.0000 |       0.0000 |       0.0000 |       0.0000 |       0.0000 |       0.0000 |       0.0000 |       0.0000 |       0.0000 |       0.0000 |       0.0000 |       0.0000 |       0.0000 |       0.0000 |       0.0000 |       0.0000 |       0.0000 |       0.0000 |       0.0000 |
il1.repl_rate                               0.0000 |       0.0000 |       0.0000 |       0.0000 |       0.0000 |       0.0000 |       0.0000 |       0.0000 |       0.0000 |       0.0000 |       0.0000 |       0.0000 |       0.0000 |       0.0000 |       0.0000 |       0.0000 |       0.0000 |       0.0000 |       0.0000 |       0.0000 |
il1.wb_rate                                 0.0000 |       0.0000 |       0.0000 |       0.0000 |       0.0000 |       0.0000 |       0.0000 |       0.0000 |       0.0000 |       0.0000 |       0.0000 |       0.0000 |       0.0000 |       0.0000 |       0.0000 |       0.0000 |       0.0000 |       0.0000 |       0.0000 |       0.0000 |
il1.inv_rate                                0.0000 |       0.0000 |       0.0000 |       0.0000 |       0.0000 |       0.0000 |       0.0000 |       0.0000 |       0.0000 |       0.0000 |       0.0000 |       0.0000 |       0.0000 |       0.0000 |       0.0000 |       0.0000 |       0.0000 |       0.0000 |       0.0000 |       0.0000 |
dl1.accesses                              21059399 |     21059399 |     21059399 |     21059399 |     84520905 |     84520905 |     84520905 |     84520905 |    338613471 |    338613471 |    338613471 |    338613471 |   1339987349 |   1339987349 |   1339987349 |   1339987349 |   5384920093 |   5384920093 |   5384920093 |   5384920093 |
dl1.hits                                  20794114 |     20794114 |     20794114 |     20794114 |     82403229 |     82403229 |     82403229 |     82403229 |    328022107 |    328022107 |    328022107 |    328022107 |   1293899875 |   1293899875 |   1293899875 |   1293899875 |   5191249285 |   5191249285 |   5191249285 |   5191249285 |
dl1.misses                                  265285 |       265285 |       265285 |       265285 |      2117676 |      2117676 |      2117676 |      2117676 |     10591364 |     10591364 |     10591364 |     10591364 |     46087474 |     46087474 |     46087474 |     46087474 |    193670808 |    193670808 |    193670808 |    193670808 |
dl1.replacements                            265029 |       265029 |       265029 |       265029 |      2117420 |      2117420 |      2117420 |      2117420 |     10591108 |     10591108 |     10591108 |     10591108 |     46087218 |     46087218 |     46087218 |     46087218 |    193670552 |    193670552 |    193670552 |    193670552 |
dl1.writebacks                              237608 |       237608 |       237608 |       237608 |      1934291 |      1934291 |      1934291 |      1934291 |      9824464 |      9824464 |      9824464 |      9824464 |     42378993 |     42378993 |     42378993 |     42378993 |    175526115 |    175526115 |    175526115 |    175526115 |
dl1.invalidations                                0 |            0 |            0 |            0 |            0 |            0 |            0 |            0 |            0 |            0 |            0 |            0 |            0 |            0 |            0 |            0 |            0 |            0 |            0 |            0 |
dl1.miss_rate                               0.0126 |       0.0126 |       0.0126 |       0.0126 |       0.0251 |       0.0251 |       0.0251 |       0.0251 |       0.0313 |       0.0313 |       0.0313 |       0.0313 |       0.0344 |       0.0344 |       0.0344 |       0.0344 |       0.0360 |       0.0360 |       0.0360 |       0.0360 |
dl1.repl_rate                               0.0126 |       0.0126 |       0.0126 |       0.0126 |       0.0251 |       0.0251 |       0.0251 |       0.0251 |       0.0313 |       0.0313 |       0.0313 |       0.0313 |       0.0344 |       0.0344 |       0.0344 |       0.0344 |       0.0360 |       0.0360 |       0.0360 |       0.0360 |
dl1.wb_rate                                 0.0113 |       0.0113 |       0.0113 |       0.0113 |       0.0229 |       0.0229 |       0.0229 |       0.0229 |       0.0290 |       0.0290 |       0.0290 |       0.0290 |       0.0316 |       0.0316 |       0.0316 |       0.0316 |       0.0326 |       0.0326 |       0.0326 |       0.0326 |
dl1.inv_rate                                0.0000 |       0.0000 |       0.0000 |       0.0000 |       0.0000 |       0.0000 |       0.0000 |       0.0000 |       0.0000 |       0.0000 |       0.0000 |       0.0000 |       0.0000 |       0.0000 |       0.0000 |       0.0000 |       0.0000 |       0.0000 |       0.0000 |       0.0000 |
dl2.accesses                                503292 |       503292 |       503231 |       503231 |      4052369 |      4052369 |      4052307 |      4052307 |     20416221 |     20416221 |     20416164 |     20416164 |     88466870 |     88466870 |     88466808 |     88466808 |    369197326 |    369197326 |    369197264 |    369197264 |
dl2.hits                                    502029 |       502029 |       501970 |       501970 |      4050591 |      4050591 |      4050532 |      4050532 |     20413424 |     20413424 |     20413371 |     20413371 |     88462018 |     88462018 |     88461960 |     88461960 |    369188378 |    369188378 |    369188320 |    369188320 |
dl2.misses                                    1263 |         1263 |         1261 |         1261 |         1778 |         1778 |         1775 |         1775 |         2797 |         2797 |         2793 |         2793 |         4852 |         4852 |         4848 |         4848 |         8948 |         8948 |         8944 |         8944 |
dl2.replacements                                60 |           60 |            0 |            0 |           61 |           61 |            0 |            0 |           63 |           63 |            0 |            0 |           62 |           62 |            0 |            0 |           62 |           62 |            0 |            0 |
dl2.writebacks                                   1 |            1 |            0 |            0 |            2 |            2 |            0 |            0 |            2 |            2 |            0 |            0 |            3 |            3 |            0 |            0 |            3 |            3 |            0 |            0 |
dl2.invalidations                                0 |            0 |            0 |            0 |            0 |            0 |            0 |            0 |            0 |            0 |            0 |            0 |            0 |            0 |            0 |            0 |            0 |            0 |            0 |            0 |
dl2.miss_rate                               0.0025 |       0.0025 |       0.0025 |       0.0025 |       0.0004 |       0.0004 |       0.0004 |       0.0004 |       0.0001 |       0.0001 |       0.0001 |       0.0001 |       0.0001 |       0.0001 |       0.0001 |       0.0001 |       0.0000 |       0.0000 |       0.0000 |       0.0000 |
dl2.repl_rate                               0.0001 |       0.0001 |       0.0000 |       0.0000 |       0.0000 |       0.0000 |       0.0000 |       0.0000 |       0.0000 |       0.0000 |       0.0000 |       0.0000 |       0.0000 |       0.0000 |       0.0000 |       0.0000 |       0.0000 |       0.0000 |       0.0000 |       0.0000 |
dl2.wb_rate                                 0.0000 |       0.0000 |       0.0000 |       0.0000 |       0.0000 |       0.0000 |       0.0000 |       0.0000 |       0.0000 |       0.0000 |       0.0000 |       0.0000 |       0.0000 |       0.0000 |       0.0000 |       0.0000 |       0.0000 |       0.0000 |       0.0000 |       0.0000 |
dl2.inv_rate                                0.0000 |       0.0000 |       0.0000 |       0.0000 |       0.0000 |       0.0000 |       0.0000 |       0.0000 |       0.0000 |       0.0000 |       0.0000 |       0.0000 |       0.0000 |       0.0000 |       0.0000 |       0.0000 |       0.0000 |       0.0000 |       0.0000 |       0.0000 |
itlb.accesses                             46887436 |     46887436 |     46887436 |     46887436 |    188161131 |    188161131 |    188161131 |    188161131 |    753646447 |    753646447 |    753646447 |    753646447 |   2981487730 |   2981487730 |   2981487730 |   2981487730 |  11985108070 |  11985108070 |  11985108070 |  11985108070 |
itlb.hits                                 46887427 |     46887427 |     46887427 |     46887427 |    188161122 |    188161122 |    188161122 |    188161122 |    753646438 |    753646438 |    753646438 |    753646438 |   2981487721 |   2981487721 |   2981487721 |   2981487721 |  11985108061 |  11985108061 |  11985108061 |  11985108061 |
itlb.misses                                      9 |            9 |            9 |            9 |            9 |            9 |            9 |            9 |            9 |            9 |            9 |            9 |            9 |            9 |            9 |            9 |            9 |            9 |            9 |            9 |
itlb.replacements                                0 |            0 |            0 |            0 |            0 |            0 |            0 |            0 |            0 |            0 |            0 |            0 |            0 |            0 |            0 |            0 |            0 |            0 |            0 |            0 |
itlb.writebacks                                  0 |            0 |            0 |            0 |            0 |            0 |            0 |            0 |            0 |            0 |            0 |            0 |            0 |            0 |            0 |            0 |            0 |            0 |            0 |            0 |
itlb.invalidations                               0 |            0 |            0 |            0 |            0 |            0 |            0 |            0 |            0 |            0 |            0 |            0 |            0 |            0 |            0 |            0 |            0 |            0 |            0 |            0 |
itlb.miss_rate                              0.0000 |       0.0000 |       0.0000 |       0.0000 |       0.0000 |       0.0000 |       0.0000 |       0.0000 |       0.0000 |       0.0000 |       0.0000 |       0.0000 |       0.0000 |       0.0000 |       0.0000 |       0.0000 |       0.0000 |       0.0000 |       0.0000 |       0.0000 |
itlb.repl_rate                              0.0000 |       0.0000 |       0.0000 |       0.0000 |       0.0000 |       0.0000 |       0.0000 |       0.0000 |       0.0000 |       0.0000 |       0.0000 |       0.0000 |       0.0000 |       0.0000 |       0.0000 |       0.0000 |       0.0000 |       0.0000 |       0.0000 |       0.0000 |
itlb.wb_rate                                0.0000 |       0.0000 |       0.0000 |       0.0000 |       0.0000 |       0.0000 |       0.0000 |       0.0000 |       0.0000 |       0.0000 |       0.0000 |       0.0000 |       0.0000 |       0.0000 |       0.0000 |       0.0000 |       0.0000 |       0.0000 |       0.0000 |       0.0000 |
itlb.inv_rate                               0.0000 |       0.0000 |       0.0000 |       0.0000 |       0.0000 |       0.0000 |       0.0000 |       0.0000 |       0.0000 |       0.0000 |       0.0000 |       0.0000 |       0.0000 |       0.0000 |       0.0000 |       0.0000 |       0.0000 |       0.0000 |       0.0000 |       0.0000 |
dtlb.accesses                             21059399 |     21059399 |     21059399 |     21059399 |     84520905 |     84520905 |     84520905 |     84520905 |    338613471 |    338613471 |    338613471 |    338613471 |   1339987349 |   1339987349 |   1339987349 |   1339987349 |   5384920093 |   5384920093 |   5384920093 |   5384920093 |
dtlb.hits                                 21059388 |     21059388 |     21059388 |     21059388 |     84520890 |     84520890 |     84520890 |     84520890 |    338613448 |    338613448 |    338613448 |    338613448 |   1339987310 |   1339987310 |   1339987310 |   1339987310 |   5384920022 |   5384920022 |   5384920022 |   5384920022 |
dtlb.misses                                     11 |           11 |           11 |           11 |           15 |           15 |           15 |           15 |           23 |           23 |           23 |           23 |           39 |           39 |           39 |           39 |           71 |           71 |           71 |           71 |
dtlb.replacements                                0 |            0 |            0 |            0 |            0 |            0 |            0 |            0 |            0 |            0 |            0 |            0 |            0 |            0 |            0 |            0 |            0 |            0 |            0 |            0 |
dtlb.writebacks                                  0 |            0 |            0 |            0 |            0 |            0 |            0 |            0 |            0 |            0 |            0 |            0 |            0 |            0 |            0 |            0 |            0 |            0 |            0 |            0 |
dtlb.invalidations                               0 |            0 |            0 |            0 |            0 |            0 |            0 |            0 |            0 |            0 |            0 |            0 |            0 |            0 |            0 |            0 |            0 |            0 |            0 |            0 |
dtlb.miss_rate                              0.0000 |       0.0000 |       0.0000 |       0.0000 |       0.0000 |       0.0000 |       0.0000 |       0.0000 |       0.0000 |       0.0000 |       0.0000 |       0.0000 |       0.0000 |       0.0000 |       0.0000 |       0.0000 |       0.0000 |       0.0000 |       0.0000 |       0.0000 |
dtlb.repl_rate                              0.0000 |       0.0000 |       0.0000 |       0.0000 |       0.0000 |       0.0000 |       0.0000 |       0.0000 |       0.0000 |       0.0000 |       0.0000 |       0.0000 |       0.0000 |       0.0000 |       0.0000 |       0.0000 |       0.0000 |       0.0000 |       0.0000 |       0.0000 |
dtlb.wb_rate                                0.0000 |       0.0000 |       0.0000 |       0.0000 |       0.0000 |       0.0000 |       0.0000 |       0.0000 |       0.0000 |       0.0000 |       0.0000 |       0.0000 |       0.0000 |       0.0000 |       0.0000 |       0.0000 |       0.0000 |       0.0000 |       0.0000 |       0.0000 |
dtlb.inv_rate                               0.0000 |       0.0000 |       0.0000 |       0.0000 |       0.0000 |       0.0000 |       0.0000 |       0.0000 |       0.0000 |       0.0000 |       0.0000 |       0.0000 |       0.0000 |       0.0000 |       0.0000 |       0.0000 |       0.0000 |       0.0000 |       0.0000 |       0.0000 |
ld_text_base                            0x00400000 |   0x00400000 |   0x00400000 |   0x00400000 |   0x00400000 |   0x00400000 |   0x00400000 |   0x00400000 |   0x00400000 |   0x00400000 |   0x00400000 |   0x00400000 |   0x00400000 |   0x00400000 |   0x00400000 |   0x00400000 |   0x00400000 |   0x00400000 |   0x00400000 |   0x00400000 |
ld_text_size                                 71952 |        71952 |        71952 |        71952 |        71984 |        71984 |        71984 |        71984 |        72000 |        72000 |        72000 |        72000 |        72016 |        72016 |        72016 |        72016 |        72016 |        72016 |        72016 |        72016 |
ld_data_base                            0x10000000 |   0x10000000 |   0x10000000 |   0x10000000 |   0x10000000 |   0x10000000 |   0x10000000 |   0x10000000 |   0x10000000 |   0x10000000 |   0x10000000 |   0x10000000 |   0x10000000 |   0x10000000 |   0x10000000 |   0x10000000 |   0x10000000 |   0x10000000 |   0x10000000 |   0x10000000 |
ld_data_size                                  8192 |         8192 |         8192 |         8192 |         8192 |         8192 |         8192 |         8192 |         8192 |         8192 |         8192 |         8192 |         8192 |         8192 |         8192 |         8192 |         8192 |         8192 |         8192 |         8192 |
ld_stack_base                           0x7fffc000 |   0x7fffc000 |   0x7fffc000 |   0x7fffc000 |   0x7fffc000 |   0x7fffc000 |   0x7fffc000 |   0x7fffc000 |   0x7fffc000 |   0x7fffc000 |   0x7fffc000 |   0x7fffc000 |   0x7fffc000 |   0x7fffc000 |   0x7fffc000 |   0x7fffc000 |   0x7fffc000 |   0x7fffc000 |   0x7fffc000 |   0x7fffc000 |
ld_stack_size                                16384 |        16384 |        16384 |        16384 |        16384 |        16384 |        16384 |        16384 |        16384 |        16384 |        16384 |        16384 |        16384 |        16384 |        16384 |        16384 |        16384 |        16384 |        16384 |        16384 |
ld_prog_entry                           0x00400140 |   0x00400140 |   0x00400140 |   0x00400140 |   0x00400140 |   0x00400140 |   0x00400140 |   0x00400140 |   0x00400140 |   0x00400140 |   0x00400140 |   0x00400140 |   0x00400140 |   0x00400140 |   0x00400140 |   0x00400140 |   0x00400140 |   0x00400140 |   0x00400140 |   0x00400140 |
ld_environ_base                         0x7fff8000 |   0x7fff8000 |   0x7fff8000 |   0x7fff8000 |   0x7fff8000 |   0x7fff8000 |   0x7fff8000 |   0x7fff8000 |   0x7fff8000 |   0x7fff8000 |   0x7fff8000 |   0x7fff8000 |   0x7fff8000 |   0x7fff8000 |   0x7fff8000 |   0x7fff8000 |   0x7fff8000 |   0x7fff8000 |   0x7fff8000 |   0x7fff8000 |
ld_target_big_endian                             0 |            0 |            0 |            0 |            0 |            0 |            0 |            0 |            0 |            0 |            0 |            0 |            0 |            0 |            0 |            0 |            0 |            0 |            0 |            0 |
mem.page_count                                  29 |           29 |           29 |           29 |           33 |           33 |           33 |           33 |           41 |           41 |           41 |           41 |           57 |           57 |           57 |           57 |           89 |           89 |           89 |           89 |
mem.page_mem                                  116k |         116k |         116k |         116k |         132k |         132k |         132k |         132k |         164k |         164k |         164k |         164k |         228k |         228k |         228k |         228k |         356k |         356k |         356k |         356k |
mem.ptab_misses                                 29 |           29 |           29 |           29 |           33 |           33 |           33 |           33 |           41 |           41 |           41 |           41 |           57 |           57 |           57 |           57 |           89 |           89 |           89 |           89 |
mem.ptab_accesses                        230114832 |    230114832 |    230114832 |    230114832 |    922132816 |    922132816 |    922132816 |    922132816 |   3692259308 |   3692259308 |   3692259308 |   3692259308 |  14606372292 |  14606372292 |  14606372292 |  14606372292 |  58710719140 |  58710719140 |  58710719140 |  58710719140 |
mem.ptab_miss_rate                          0.0000 |       0.0000 |       0.0000 |       0.0000 |       0.0000 |       0.0000 |       0.0000 |       0.0000 |       0.0000 |       0.0000 |       0.0000 |       0.0000 |       0.0000 |       0.0000 |       0.0000 |       0.0000 |       0.0000 |       0.0000 |       0.0000 |       0.0000 |
-------------------------------------------------------------------------------------------------
sim-bpred                                     4096 |         4096 |         4096 |         4096 |         4096 |         4096 |         4096 |         8192 |         8192 |         8192 |         8192 |         8192 |         8192 |         8192 |        16384 |        16384 |        16384 |        16384 |        16384 |        16384 |        16384 |        32768 |        32768 |        32768 |        32768 |        32768 |        32768 |        32768 |        65536 |        65536 |        65536 |        65536 |        65536 |        65536 |        65536 |
-bpred bimod -bpred:bimod 512
-bpred bimod -bpred:bimod 1024
-bpred bimod -bpred:bimod 2048
-bpred 2lev -bpred:2lev 1 512 10 1
-bpred 2lev -bpred:2lev 1 1024 10 1
-bpred 2lev -bpred:2lev 1 2048 10 1
-bpred 2lev -bpred:2lev 1 4096 10 1
-------------------------------------------------------------------------------------------------
sim_num_insn                              46887436 |     46887436 |     46887436 |     46887436 |     46887436 |     46887436 |     46887436 |    188161131 |    188161131 |    188161131 |    188161131 |    188161131 |    188161131 |    188161131 |    753646447 |    753646447 |    753646447 |    753646447 |    753646447 |    753646447 |    753646447 |   2981487730 |   2981487730 |   2981487730 |   2981487730 |   2981487730 |   2981487730 |   2981487730 |  11985108070 |  11985108070 |  11985108070 |  11985108070 |  11985108070 |  11985108070 |  11985108070 |
sim_num_refs                              21042933 |     21042933 |     21042933 |     21042933 |     21042933 |     21042933 |     21042933 |     84488055 |     84488055 |     84488055 |     84488055 |     84488055 |     84488055 |     84488055 |    338547853 |    338547853 |    338547853 |    338547853 |    338547853 |    338547853 |    338547853 |   1339856195 |   1339856195 |   1339856195 |   1339856195 |   1339856195 |   1339856195 |   1339856195 |   5384657867 |   5384657867 |   5384657867 |   5384657867 |   5384657867 |   5384657867 |   5384657867 |
sim_elapsed_time                                 5 |            6 |            5 |            6 |            5 |            6 |            8 |           22 |           22 |           22 |           22 |           22 |           22 |           24 |           88 |           89 |           88 |           89 |           90 |           89 |           93 |          350 |          351 |          350 |          355 |          370 |          356 |          367 |         1408 |         1408 |         1408 |         1423 |         1426 |         1422 |         1466 |
sim_inst_rate                         9377487.2000 | 7814572.6667 | 9377487.2000 | 7814572.6667 | 9377487.2000 | 7814572.6667 | 5860929.5000 | 8552778.6818 | 8552778.6818 | 8552778.6818 | 8552778.6818 | 8552778.6818 | 8552778.6818 | 7840047.1250 | 8564164.1705 | 8467937.6067 | 8564164.1705 | 8467937.6067 | 8373849.4111 | 8467937.6067 | 8103725.2366 | 8518536.3714 | 8494267.0370 | 8518536.3714 | 8398556.9859 | 8058074.9459 | 8374965.5337 | 8123944.7684 | 8512150.6179 | 8512150.6179 | 8512150.6179 | 8422423.0991 | 8404704.1164 | 8428346.0408 | 8175380.6753 |
sim_num_branches                           7919204 |      7919204 |      7919204 |      7919204 |      7919204 |      7919204 |      7919204 |     31769496 |     31769496 |     31769496 |     31769496 |     31769496 |     31769496 |     31769496 |    127123275 |    127123275 |    127123275 |    127123275 |    127123275 |    127123275 |    127123275 |    502562397 |    502562397 |    502562397 |    502562397 |    502562397 |    502562397 |    502562397 |   2020751003 |   2020751003 |   2020751003 |   2020751003 |   2020751003 |   2020751003 |   2020751003 |
sim_IPB                                     5.9207 |       5.9207 |       5.9207 |       5.9207 |       5.9207 |       5.9207 |       5.9207 |       5.9227 |       5.9227 |       5.9227 |       5.9227 |       5.9227 |       5.9227 |       5.9227 |       5.9285 |       5.9285 |       5.9285 |       5.9285 |       5.9285 |       5.9285 |       5.9285 |       5.9326 |       5.9326 |       5.9326 |       5.9326 |       5.9326 |       5.9326 |       5.9326 |       5.9310 |       5.9310 |       5.9310 |       5.9310 |       5.9310 |       5.9310 |       5.9310 |
bpred_bimod.lookups                        7919204 |      7919204 |      7919204 |xxxxxxxxxxxxx |xxxxxxxxxxxxx |xxxxxxxxxxxxx |xxxxxxxxxxxxx |     31769496 |     31769496 |     31769496 |xxxxxxxxxxxxx |xxxxxxxxxxxxx |xxxxxxxxxxxxx |xxxxxxxxxxxxx |    127123275 |    127123275 |    127123275 |xxxxxxxxxxxxx |xxxxxxxxxxxxx |xxxxxxxxxxxxx |xxxxxxxxxxxxx |    502562397 |    502562397 |    502562397 |xxxxxxxxxxxxx |xxxxxxxxxxxxx |xxxxxxxxxxxxx |xxxxxxxxxxxxx |   2020751003 |   2020751003 |   2020751003 |
bpred_bimod.updates                        7919204 |      7919204 |      7919204 |xxxxxxxxxxxxx |xxxxxxxxxxxxx |xxxxxxxxxxxxx |xxxxxxxxxxxxx |     31769496 |     31769496 |     31769496 |xxxxxxxxxxxxx |xxxxxxxxxxxxx |xxxxxxxxxxxxx |xxxxxxxxxxxxx |    127123275 |    127123275 |    127123275 |xxxxxxxxxxxxx |xxxxxxxxxxxxx |xxxxxxxxxxxxx |xxxxxxxxxxxxx |    502562397 |    502562397 |    502562397 |xxxxxxxxxxxxx |xxxxxxxxxxxxx |xxxxxxxxxxxxx |xxxxxxxxxxxxx |   2020751003 |   2020751003 |   2020751003 |
bpred_bimod.addr_hits                      6490917 |      6490920 |      6490922 |xxxxxxxxxxxxx |xxxxxxxxxxxxx |xxxxxxxxxxxxx |xxxxxxxxxxxxx |     26064005 |     26064008 |     26064011 |xxxxxxxxxxxxx |xxxxxxxxxxxxx |xxxxxxxxxxxxx |xxxxxxxxxxxxx |    104370113 |    104370115 |    104370115 |xxxxxxxxxxxxx |xxxxxxxxxxxxx |xxxxxxxxxxxxx |xxxxxxxxxxxxx |    412595577 |    412595579 |    412595580 |xxxxxxxxxxxxx |xxxxxxxxxxxxx |xxxxxxxxxxxxx |xxxxxxxxxxxxx |   1662073042 |   1662073044 |   1662073045 |
bpred_bimod.dir_hits                       6491017 |      6491019 |      6491019 |xxxxxxxxxxxxx |xxxxxxxxxxxxx |xxxxxxxxxxxxx |xxxxxxxxxxxxx |     26064106 |     26064106 |     26064108 |xxxxxxxxxxxxx |xxxxxxxxxxxxx |xxxxxxxxxxxxx |xxxxxxxxxxxxx |    104370213 |    104370213 |    104370211 |xxxxxxxxxxxxx |xxxxxxxxxxxxx |xxxxxxxxxxxxx |xxxxxxxxxxxxx |    412595677 |    412595678 |    412595676 |xxxxxxxxxxxxx |xxxxxxxxxxxxx |xxxxxxxxxxxxx |xxxxxxxxxxxxx |   1662073142 |   1662073143 |   1662073141 |
bpred_bimod.misses                         1428187 |      1428185 |      1428185 |xxxxxxxxxxxxx |xxxxxxxxxxxxx |xxxxxxxxxxxxx |xxxxxxxxxxxxx |      5705390 |      5705390 |      5705388 |xxxxxxxxxxxxx |xxxxxxxxxxxxx |xxxxxxxxxxxxx |xxxxxxxxxxxxx |     22753062 |     22753062 |     22753064 |xxxxxxxxxxxxx |xxxxxxxxxxxxx |xxxxxxxxxxxxx |xxxxxxxxxxxxx |     89966720 |     89966719 |     89966721 |xxxxxxxxxxxxx |xxxxxxxxxxxxx |xxxxxxxxxxxxx |xxxxxxxxxxxxx |    358677861 |    358677860 |    358677862 |
bpred_bimod.jr_hits                             57 |           57 |           57 |xxxxxxxxxxxxx |xxxxxxxxxxxxx |xxxxxxxxxxxxx |xxxxxxxxxxxxx |           57 |           57 |           57 |xxxxxxxxxxxxx |xxxxxxxxxxxxx |xxxxxxxxxxxxx |xxxxxxxxxxxxx |           57 |           57 |           57 |xxxxxxxxxxxxx |xxxxxxxxxxxxx |xxxxxxxxxxxxx |xxxxxxxxxxxxx |           57 |           57 |           57 |xxxxxxxxxxxxx |xxxxxxxxxxxxx |xxxxxxxxxxxxx |xxxxxxxxxxxxx |           57 |           57 |           57 |
bpred_bimod.jr_seen                             58 |           58 |           58 |xxxxxxxxxxxxx |xxxxxxxxxxxxx |xxxxxxxxxxxxx |xxxxxxxxxxxxx |           58 |           58 |           58 |xxxxxxxxxxxxx |xxxxxxxxxxxxx |xxxxxxxxxxxxx |xxxxxxxxxxxxx |           58 |           58 |           58 |xxxxxxxxxxxxx |xxxxxxxxxxxxx |xxxxxxxxxxxxx |xxxxxxxxxxxxx |           58 |           58 |           58 |xxxxxxxxxxxxx |xxxxxxxxxxxxx |xxxxxxxxxxxxx |xxxxxxxxxxxxx |           58 |           58 |           58 |
bpred_bimod.jr_non_ras_hits.PP                   0 |            0 |            0 |xxxxxxxxxxxxx |xxxxxxxxxxxxx |xxxxxxxxxxxxx |xxxxxxxxxxxxx |            0 |            0 |            0 |xxxxxxxxxxxxx |xxxxxxxxxxxxx |xxxxxxxxxxxxx |xxxxxxxxxxxxx |            0 |            0 |            0 |xxxxxxxxxxxxx |xxxxxxxxxxxxx |xxxxxxxxxxxxx |xxxxxxxxxxxxx |            0 |            0 |            0 |xxxxxxxxxxxxx |xxxxxxxxxxxxx |xxxxxxxxxxxxx |xxxxxxxxxxxxx |            0 |            0 |            0 |
bpred_bimod.jr_non_ras_seen.PP                   0 |            0 |            0 |xxxxxxxxxxxxx |xxxxxxxxxxxxx |xxxxxxxxxxxxx |xxxxxxxxxxxxx |            0 |            0 |            0 |xxxxxxxxxxxxx |xxxxxxxxxxxxx |xxxxxxxxxxxxx |xxxxxxxxxxxxx |            0 |            0 |            0 |xxxxxxxxxxxxx |xxxxxxxxxxxxx |xxxxxxxxxxxxx |xxxxxxxxxxxxx |            0 |            0 |            0 |xxxxxxxxxxxxx |xxxxxxxxxxxxx |xxxxxxxxxxxxx |xxxxxxxxxxxxx |            0 |            0 |            0 |
bpred_bimod.bpred_addr_rate                 0.8196 |       0.8196 |       0.8196 |xxxxxxxxxxxxx |xxxxxxxxxxxxx |xxxxxxxxxxxxx |xxxxxxxxxxxxx |       0.8204 |       0.8204 |       0.8204 |xxxxxxxxxxxxx |xxxxxxxxxxxxx |xxxxxxxxxxxxx |xxxxxxxxxxxxx |       0.8210 |       0.8210 |       0.8210 |xxxxxxxxxxxxx |xxxxxxxxxxxxx |xxxxxxxxxxxxx |xxxxxxxxxxxxx |       0.8210 |       0.8210 |       0.8210 |xxxxxxxxxxxxx |xxxxxxxxxxxxx |xxxxxxxxxxxxx |xxxxxxxxxxxxx |       0.8225 |       0.8225 |       0.8225 |
bpred_bimod.bpred_dir_rate                  0.8197 |       0.8197 |       0.8197 |xxxxxxxxxxxxx |xxxxxxxxxxxxx |xxxxxxxxxxxxx |xxxxxxxxxxxxx |       0.8204 |       0.8204 |       0.8204 |xxxxxxxxxxxxx |xxxxxxxxxxxxx |xxxxxxxxxxxxx |xxxxxxxxxxxxx |       0.8210 |       0.8210 |       0.8210 |xxxxxxxxxxxxx |xxxxxxxxxxxxx |xxxxxxxxxxxxx |xxxxxxxxxxxxx |       0.8210 |       0.8210 |       0.8210 |xxxxxxxxxxxxx |xxxxxxxxxxxxx |xxxxxxxxxxxxx |xxxxxxxxxxxxx |       0.8225 |       0.8225 |       0.8225 |
bpred_bimod.bpred_jr_rate                   0.9828 |       0.9828 |       0.9828 |xxxxxxxxxxxxx |xxxxxxxxxxxxx |xxxxxxxxxxxxx |xxxxxxxxxxxxx |       0.9828 |       0.9828 |       0.9828 |xxxxxxxxxxxxx |xxxxxxxxxxxxx |xxxxxxxxxxxxx |xxxxxxxxxxxxx |       0.9828 |       0.9828 |       0.9828 |xxxxxxxxxxxxx |xxxxxxxxxxxxx |xxxxxxxxxxxxx |xxxxxxxxxxxxx |       0.9828 |       0.9828 |       0.9828 |xxxxxxxxxxxxx |xxxxxxxxxxxxx |xxxxxxxxxxxxx |xxxxxxxxxxxxx |       0.9828 |       0.9828 |       0.9828 |
bpred_bimod.bpred_jr_non_ras_rate.PP       <error: |      <error: |      <error: |xxxxxxxxxxxxx |xxxxxxxxxxxxx |xxxxxxxxxxxxx |xxxxxxxxxxxxx |      <error: |      <error: |      <error: |xxxxxxxxxxxxx |xxxxxxxxxxxxx |xxxxxxxxxxxxx |xxxxxxxxxxxxx |      <error: |      <error: |      <error: |xxxxxxxxxxxxx |xxxxxxxxxxxxx |xxxxxxxxxxxxx |xxxxxxxxxxxxx |      <error: |      <error: |      <error: |xxxxxxxxxxxxx |xxxxxxxxxxxxx |xxxxxxxxxxxxx |xxxxxxxxxxxxx |      <error: |      <error: |      <error: |
bpred_bimod.retstack_pushes                     60 |           60 |           60 |xxxxxxxxxxxxx |xxxxxxxxxxxxx |xxxxxxxxxxxxx |xxxxxxxxxxxxx |           60 |           60 |           60 |xxxxxxxxxxxxx |xxxxxxxxxxxxx |xxxxxxxxxxxxx |xxxxxxxxxxxxx |           60 |           60 |           60 |xxxxxxxxxxxxx |xxxxxxxxxxxxx |xxxxxxxxxxxxx |xxxxxxxxxxxxx |           60 |           60 |           60 |xxxxxxxxxxxxx |xxxxxxxxxxxxx |xxxxxxxxxxxxx |xxxxxxxxxxxxx |           60 |           60 |           60 |
bpred_bimod.retstack_pops                       58 |           58 |           58 |xxxxxxxxxxxxx |xxxxxxxxxxxxx |xxxxxxxxxxxxx |xxxxxxxxxxxxx |           58 |           58 |           58 |xxxxxxxxxxxxx |xxxxxxxxxxxxx |xxxxxxxxxxxxx |xxxxxxxxxxxxx |           58 |           58 |           58 |xxxxxxxxxxxxx |xxxxxxxxxxxxx |xxxxxxxxxxxxx |xxxxxxxxxxxxx |           58 |           58 |           58 |xxxxxxxxxxxxx |xxxxxxxxxxxxx |xxxxxxxxxxxxx |xxxxxxxxxxxxx |           58 |           58 |           58 |
bpred_bimod.used_ras.PP                         58 |           58 |           58 |xxxxxxxxxxxxx |xxxxxxxxxxxxx |xxxxxxxxxxxxx |xxxxxxxxxxxxx |           58 |           58 |           58 |xxxxxxxxxxxxx |xxxxxxxxxxxxx |xxxxxxxxxxxxx |xxxxxxxxxxxxx |           58 |           58 |           58 |xxxxxxxxxxxxx |xxxxxxxxxxxxx |xxxxxxxxxxxxx |xxxxxxxxxxxxx |           58 |           58 |           58 |xxxxxxxxxxxxx |xxxxxxxxxxxxx |xxxxxxxxxxxxx |xxxxxxxxxxxxx |           58 |           58 |           58 |
bpred_bimod.ras_hits.PP                         57 |           57 |           57 |xxxxxxxxxxxxx |xxxxxxxxxxxxx |xxxxxxxxxxxxx |xxxxxxxxxxxxx |           57 |           57 |           57 |xxxxxxxxxxxxx |xxxxxxxxxxxxx |xxxxxxxxxxxxx |xxxxxxxxxxxxx |           57 |           57 |           57 |xxxxxxxxxxxxx |xxxxxxxxxxxxx |xxxxxxxxxxxxx |xxxxxxxxxxxxx |           57 |           57 |           57 |xxxxxxxxxxxxx |xxxxxxxxxxxxx |xxxxxxxxxxxxx |xxxxxxxxxxxxx |           57 |           57 |           57 |
bpred_bimod.ras_rate.PP                     0.9828 |       0.9828 |       0.9828 |xxxxxxxxxxxxx |xxxxxxxxxxxxx |xxxxxxxxxxxxx |xxxxxxxxxxxxx |       0.9828 |       0.9828 |       0.9828 |xxxxxxxxxxxxx |xxxxxxxxxxxxx |xxxxxxxxxxxxx |xxxxxxxxxxxxx |       0.9828 |       0.9828 |       0.9828 |xxxxxxxxxxxxx |xxxxxxxxxxxxx |xxxxxxxxxxxxx |xxxxxxxxxxxxx |       0.9828 |       0.9828 |       0.9828 |xxxxxxxxxxxxx |xxxxxxxxxxxxx |xxxxxxxxxxxxx |xxxxxxxxxxxxx |       0.9828 |       0.9828 |       0.9828 |
bpred_2lev.lookups                   xxxxxxxxxxxxx |xxxxxxxxxxxxx |xxxxxxxxxxxxx |      7919204 |      7919204 |      7919204 |      7919204 |xxxxxxxxxxxxx |xxxxxxxxxxxxx |xxxxxxxxxxxxx |     31769496 |     31769496 |     31769496 |     31769496 |xxxxxxxxxxxxx |xxxxxxxxxxxxx |xxxxxxxxxxxxx |    127123275 |    127123275 |    127123275 |    127123275 |xxxxxxxxxxxxx |xxxxxxxxxxxxx |xxxxxxxxxxxxx |    502562397 |    502562397 |    502562397 |    502562397 |xxxxxxxxxxxxx |xxxxxxxxxxxxx |xxxxxxxxxxxxx |   2020751003 |   2020751003 |   2020751003 |   2020751003 |
bpred_2lev.updates                   xxxxxxxxxxxxx |xxxxxxxxxxxxx |xxxxxxxxxxxxx |      7919204 |      7919204 |      7919204 |      7919204 |xxxxxxxxxxxxx |xxxxxxxxxxxxx |xxxxxxxxxxxxx |     31769496 |     31769496 |     31769496 |     31769496 |xxxxxxxxxxxxx |xxxxxxxxxxxxx |xxxxxxxxxxxxx |    127123275 |    127123275 |    127123275 |    127123275 |xxxxxxxxxxxxx |xxxxxxxxxxxxx |xxxxxxxxxxxxx |    502562397 |    502562397 |    502562397 |    502562397 |xxxxxxxxxxxxx |xxxxxxxxxxxxx |xxxxxxxxxxxxx |   2020751003 |   2020751003 |   2020751003 |   2020751003 |
bpred_2lev.addr_hits                 xxxxxxxxxxxxx |xxxxxxxxxxxxx |xxxxxxxxxxxxx |      5941414 |      6153204 |      6307807 |      6372974 |xxxxxxxxxxxxx |xxxxxxxxxxxxx |xxxxxxxxxxxxx |     24105520 |     24779422 |     25216674 |     25404512 |xxxxxxxxxxxxx |xxxxxxxxxxxxx |xxxxxxxxxxxxx |     97638371 |     99673910 |    100975559 |    101479521 |xxxxxxxxxxxxx |xxxxxxxxxxxxx |xxxxxxxxxxxxx |    389624338 |    396951947 |    400862126 |    402191229 |xxxxxxxxxxxxx |xxxxxxxxxxxxx |xxxxxxxxxxxxx |   1580268547 |   1609669727 |   1623658038 |   1627759508 |
bpred_2lev.dir_hits                  xxxxxxxxxxxxx |xxxxxxxxxxxxx |xxxxxxxxxxxxx |      5941535 |      6153320 |      6307918 |      6373077 |xxxxxxxxxxxxx |xxxxxxxxxxxxx |xxxxxxxxxxxxx |     24105647 |     24779542 |     25216781 |     25404610 |xxxxxxxxxxxxx |xxxxxxxxxxxxx |xxxxxxxxxxxxx |     97638487 |     99674030 |    100975669 |    101479630 |xxxxxxxxxxxxx |xxxxxxxxxxxxx |xxxxxxxxxxxxx |    389624454 |    396952061 |    400862231 |    402191331 |xxxxxxxxxxxxx |xxxxxxxxxxxxx |xxxxxxxxxxxxx |   1580268667 |   1609669840 |   1623658142 |   1627759608 |
bpred_2lev.misses                    xxxxxxxxxxxxx |xxxxxxxxxxxxx |xxxxxxxxxxxxx |      1977669 |      1765884 |      1611286 |      1546127 |xxxxxxxxxxxxx |xxxxxxxxxxxxx |xxxxxxxxxxxxx |      7663849 |      6989954 |      6552715 |      6364886 |xxxxxxxxxxxxx |xxxxxxxxxxxxx |xxxxxxxxxxxxx |     29484788 |     27449245 |     26147606 |     25643645 |xxxxxxxxxxxxx |xxxxxxxxxxxxx |xxxxxxxxxxxxx |    112937943 |    105610336 |    101700166 |    100371066 |xxxxxxxxxxxxx |xxxxxxxxxxxxx |xxxxxxxxxxxxx |    440482336 |    411081163 |    397092861 |    392991395 |
bpred_2lev.jr_hits                   xxxxxxxxxxxxx |xxxxxxxxxxxxx |xxxxxxxxxxxxx |           57 |           57 |           57 |           57 |xxxxxxxxxxxxx |xxxxxxxxxxxxx |xxxxxxxxxxxxx |           57 |           57 |           57 |           57 |xxxxxxxxxxxxx |xxxxxxxxxxxxx |xxxxxxxxxxxxx |           57 |           57 |           57 |           57 |xxxxxxxxxxxxx |xxxxxxxxxxxxx |xxxxxxxxxxxxx |           57 |           57 |           57 |           57 |xxxxxxxxxxxxx |xxxxxxxxxxxxx |xxxxxxxxxxxxx |           57 |           57 |           57 |           57 |
bpred_2lev.jr_seen                   xxxxxxxxxxxxx |xxxxxxxxxxxxx |xxxxxxxxxxxxx |           58 |           58 |           58 |           58 |xxxxxxxxxxxxx |xxxxxxxxxxxxx |xxxxxxxxxxxxx |           58 |           58 |           58 |           58 |xxxxxxxxxxxxx |xxxxxxxxxxxxx |xxxxxxxxxxxxx |           58 |           58 |           58 |           58 |xxxxxxxxxxxxx |xxxxxxxxxxxxx |xxxxxxxxxxxxx |           58 |           58 |           58 |           58 |xxxxxxxxxxxxx |xxxxxxxxxxxxx |xxxxxxxxxxxxx |           58 |           58 |           58 |           58 |
bpred_2lev.jr_non_ras_hits.PP        xxxxxxxxxxxxx |xxxxxxxxxxxxx |xxxxxxxxxxxxx |            0 |            0 |            0 |            0 |xxxxxxxxxxxxx |xxxxxxxxxxxxx |xxxxxxxxxxxxx |            0 |            0 |            0 |            0 |xxxxxxxxxxxxx |xxxxxxxxxxxxx |xxxxxxxxxxxxx |            0 |            0 |            0 |            0 |xxxxxxxxxxxxx |xxxxxxxxxxxxx |xxxxxxxxxxxxx |            0 |            0 |            0 |            0 |xxxxxxxxxxxxx |xxxxxxxxxxxxx |xxxxxxxxxxxxx |            0 |            0 |            0 |            0 |
bpred_2lev.jr_non_ras_seen.PP        xxxxxxxxxxxxx |xxxxxxxxxxxxx |xxxxxxxxxxxxx |            0 |            0 |            0 |            0 |xxxxxxxxxxxxx |xxxxxxxxxxxxx |xxxxxxxxxxxxx |            0 |            0 |            0 |            0 |xxxxxxxxxxxxx |xxxxxxxxxxxxx |xxxxxxxxxxxxx |            0 |            0 |            0 |            0 |xxxxxxxxxxxxx |xxxxxxxxxxxxx |xxxxxxxxxxxxx |            0 |            0 |            0 |            0 |xxxxxxxxxxxxx |xxxxxxxxxxxxx |xxxxxxxxxxxxx |            0 |            0 |            0 |            0 |
bpred_2lev.bpred_addr_rate           xxxxxxxxxxxxx |xxxxxxxxxxxxx |xxxxxxxxxxxxx |       0.7503 |       0.7770 |       0.7965 |       0.8047 |xxxxxxxxxxxxx |xxxxxxxxxxxxx |xxxxxxxxxxxxx |       0.7588 |       0.7800 |       0.7937 |       0.7997 |xxxxxxxxxxxxx |xxxxxxxxxxxxx |xxxxxxxxxxxxx |       0.7681 |       0.7841 |       0.7943 |       0.7983 |xxxxxxxxxxxxx |xxxxxxxxxxxxx |xxxxxxxxxxxxx |       0.7753 |       0.7899 |       0.7976 |       0.8003 |xxxxxxxxxxxxx |xxxxxxxxxxxxx |xxxxxxxxxxxxx |       0.7820 |       0.7966 |       0.8035 |       0.8055 |
bpred_2lev.bpred_dir_rate            xxxxxxxxxxxxx |xxxxxxxxxxxxx |xxxxxxxxxxxxx |       0.7503 |       0.7770 |       0.7965 |       0.8048 |xxxxxxxxxxxxx |xxxxxxxxxxxxx |xxxxxxxxxxxxx |       0.7588 |       0.7800 |       0.7937 |       0.7997 |xxxxxxxxxxxxx |xxxxxxxxxxxxx |xxxxxxxxxxxxx |       0.7681 |       0.7841 |       0.7943 |       0.7983 |xxxxxxxxxxxxx |xxxxxxxxxxxxx |xxxxxxxxxxxxx |       0.7753 |       0.7899 |       0.7976 |       0.8003 |xxxxxxxxxxxxx |xxxxxxxxxxxxx |xxxxxxxxxxxxx |       0.7820 |       0.7966 |       0.8035 |       0.8055 |
bpred_2lev.bpred_jr_rate             xxxxxxxxxxxxx |xxxxxxxxxxxxx |xxxxxxxxxxxxx |       0.9828 |       0.9828 |       0.9828 |       0.9828 |xxxxxxxxxxxxx |xxxxxxxxxxxxx |xxxxxxxxxxxxx |       0.9828 |       0.9828 |       0.9828 |       0.9828 |xxxxxxxxxxxxx |xxxxxxxxxxxxx |xxxxxxxxxxxxx |       0.9828 |       0.9828 |       0.9828 |       0.9828 |xxxxxxxxxxxxx |xxxxxxxxxxxxx |xxxxxxxxxxxxx |       0.9828 |       0.9828 |       0.9828 |       0.9828 |xxxxxxxxxxxxx |xxxxxxxxxxxxx |xxxxxxxxxxxxx |       0.9828 |       0.9828 |       0.9828 |       0.9828 |
bpred_2lev.bpred_jr_non_ras_rate.PP  xxxxxxxxxxxxx |xxxxxxxxxxxxx |xxxxxxxxxxxxx |      <error: |      <error: |      <error: |      <error: |xxxxxxxxxxxxx |xxxxxxxxxxxxx |xxxxxxxxxxxxx |      <error: |      <error: |      <error: |      <error: |xxxxxxxxxxxxx |xxxxxxxxxxxxx |xxxxxxxxxxxxx |      <error: |      <error: |      <error: |      <error: |xxxxxxxxxxxxx |xxxxxxxxxxxxx |xxxxxxxxxxxxx |      <error: |      <error: |      <error: |      <error: |xxxxxxxxxxxxx |xxxxxxxxxxxxx |xxxxxxxxxxxxx |      <error: |      <error: |      <error: |      <error: |
bpred_2lev.retstack_pushes           xxxxxxxxxxxxx |xxxxxxxxxxxxx |xxxxxxxxxxxxx |           60 |           60 |           60 |           60 |xxxxxxxxxxxxx |xxxxxxxxxxxxx |xxxxxxxxxxxxx |           60 |           60 |           60 |           60 |xxxxxxxxxxxxx |xxxxxxxxxxxxx |xxxxxxxxxxxxx |           60 |           60 |           60 |           60 |xxxxxxxxxxxxx |xxxxxxxxxxxxx |xxxxxxxxxxxxx |           60 |           60 |           60 |           60 |xxxxxxxxxxxxx |xxxxxxxxxxxxx |xxxxxxxxxxxxx |           60 |           60 |           60 |           60 |
bpred_2lev.retstack_pops             xxxxxxxxxxxxx |xxxxxxxxxxxxx |xxxxxxxxxxxxx |           58 |           58 |           58 |           58 |xxxxxxxxxxxxx |xxxxxxxxxxxxx |xxxxxxxxxxxxx |           58 |           58 |           58 |           58 |xxxxxxxxxxxxx |xxxxxxxxxxxxx |xxxxxxxxxxxxx |           58 |           58 |           58 |           58 |xxxxxxxxxxxxx |xxxxxxxxxxxxx |xxxxxxxxxxxxx |           58 |           58 |           58 |           58 |xxxxxxxxxxxxx |xxxxxxxxxxxxx |xxxxxxxxxxxxx |           58 |           58 |           58 |           58 |
bpred_2lev.used_ras.PP               xxxxxxxxxxxxx |xxxxxxxxxxxxx |xxxxxxxxxxxxx |           58 |           58 |           58 |           58 |xxxxxxxxxxxxx |xxxxxxxxxxxxx |xxxxxxxxxxxxx |           58 |           58 |           58 |           58 |xxxxxxxxxxxxx |xxxxxxxxxxxxx |xxxxxxxxxxxxx |           58 |           58 |           58 |           58 |xxxxxxxxxxxxx |xxxxxxxxxxxxx |xxxxxxxxxxxxx |           58 |           58 |           58 |           58 |xxxxxxxxxxxxx |xxxxxxxxxxxxx |xxxxxxxxxxxxx |           58 |           58 |           58 |           58 |
bpred_2lev.ras_hits.PP               xxxxxxxxxxxxx |xxxxxxxxxxxxx |xxxxxxxxxxxxx |           57 |           57 |           57 |           57 |xxxxxxxxxxxxx |xxxxxxxxxxxxx |xxxxxxxxxxxxx |           57 |           57 |           57 |           57 |xxxxxxxxxxxxx |xxxxxxxxxxxxx |xxxxxxxxxxxxx |           57 |           57 |           57 |           57 |xxxxxxxxxxxxx |xxxxxxxxxxxxx |xxxxxxxxxxxxx |           57 |           57 |           57 |           57 |xxxxxxxxxxxxx |xxxxxxxxxxxxx |xxxxxxxxxxxxx |           57 |           57 |           57 |           57 |
bpred_2lev.ras_rate.PP               xxxxxxxxxxxxx |xxxxxxxxxxxxx |xxxxxxxxxxxxx |       0.9828 |       0.9828 |       0.9828 |       0.9828 |xxxxxxxxxxxxx |xxxxxxxxxxxxx |xxxxxxxxxxxxx |       0.9828 |       0.9828 |       0.9828 |       0.9828 |xxxxxxxxxxxxx |xxxxxxxxxxxxx |xxxxxxxxxxxxx |       0.9828 |       0.9828 |       0.9828 |       0.9828 |xxxxxxxxxxxxx |xxxxxxxxxxxxx |xxxxxxxxxxxxx |       0.9828 |       0.9828 |       0.9828 |       0.9828 |xxxxxxxxxxxxx |xxxxxxxxxxxxx |xxxxxxxxxxxxx |       0.9828 |       0.9828 |       0.9828 |       0.9828 |

Command list: 
	sslittle-na-sstrix-gcc -Wall -O3 -funroll-loops -finline-functions  -DRANDOM_SIZE=4096 -DOFFSET=6 -DSORT=shakersort sorts/shakersort691041334.c simpleMain.c -o shakersort1972988136
	sim-cache -cache:dl1 dl1:256:32:1:l -cache:dl2 dl2:131072:32:1:l -cache:il1 il1:256:32:1:l -cache:il2 dl2 shakersort1972988136
	sim-cache -cache:dl1 dl1:256:32:1:l -cache:dl2 dl2:65536:32:1:l -cache:il1 il1:256:32:1:l -cache:il2 dl2 shakersort1972988136
	sim-cache -cache:dl1 dl1:1:32:256:l -cache:dl2 dl2:1:32:131072:l -cache:il1 il1:1:32:256:l -cache:il2 dl2 shakersort1972988136
	sim-cache -cache:dl1 dl1:1:32:256:l -cache:dl2 dl2:1:32:65536:l -cache:il1 il1:1:32:256:l -cache:il2 dl2 shakersort1972988136
	sim-bpred -bpred bimod -bpred:bimod 512 shakersort1972988136
	sim-bpred -bpred bimod -bpred:bimod 1024 shakersort1972988136
	sim-bpred -bpred bimod -bpred:bimod 2048 shakersort1972988136
	sim-bpred -bpred 2lev -bpred:2lev 1 512 10 1 shakersort1972988136
	sim-bpred -bpred 2lev -bpred:2lev 1 1024 10 1 shakersort1972988136
	sim-bpred -bpred 2lev -bpred:2lev 1 2048 10 1 shakersort1972988136
	sim-bpred -bpred 2lev -bpred:2lev 1 4096 10 1 shakersort1972988136
	sslittle-na-sstrix-gcc -Wall -O3 -funroll-loops -finline-functions  -DRANDOM_SIZE=8192 -DOFFSET=6 -DSORT=shakersort sorts/shakersort691041334.c simpleMain.c -o shakersort1972988136
	sim-cache -cache:dl1 dl1:256:32:1:l -cache:dl2 dl2:131072:32:1:l -cache:il1 il1:256:32:1:l -cache:il2 dl2 shakersort1972988136
	sim-cache -cache:dl1 dl1:256:32:1:l -cache:dl2 dl2:65536:32:1:l -cache:il1 il1:256:32:1:l -cache:il2 dl2 shakersort1972988136
	sim-cache -cache:dl1 dl1:1:32:256:l -cache:dl2 dl2:1:32:131072:l -cache:il1 il1:1:32:256:l -cache:il2 dl2 shakersort1972988136
	sim-cache -cache:dl1 dl1:1:32:256:l -cache:dl2 dl2:1:32:65536:l -cache:il1 il1:1:32:256:l -cache:il2 dl2 shakersort1972988136
	sim-bpred -bpred bimod -bpred:bimod 512 shakersort1972988136
	sim-bpred -bpred bimod -bpred:bimod 1024 shakersort1972988136
	sim-bpred -bpred bimod -bpred:bimod 2048 shakersort1972988136
	sim-bpred -bpred 2lev -bpred:2lev 1 512 10 1 shakersort1972988136
	sim-bpred -bpred 2lev -bpred:2lev 1 1024 10 1 shakersort1972988136
	sim-bpred -bpred 2lev -bpred:2lev 1 2048 10 1 shakersort1972988136
	sim-bpred -bpred 2lev -bpred:2lev 1 4096 10 1 shakersort1972988136
	sslittle-na-sstrix-gcc -Wall -O3 -funroll-loops -finline-functions  -DRANDOM_SIZE=16384 -DOFFSET=6 -DSORT=shakersort sorts/shakersort691041334.c simpleMain.c -o shakersort1972988136
	sim-cache -cache:dl1 dl1:256:32:1:l -cache:dl2 dl2:131072:32:1:l -cache:il1 il1:256:32:1:l -cache:il2 dl2 shakersort1972988136
	sim-cache -cache:dl1 dl1:256:32:1:l -cache:dl2 dl2:65536:32:1:l -cache:il1 il1:256:32:1:l -cache:il2 dl2 shakersort1972988136
	sim-cache -cache:dl1 dl1:1:32:256:l -cache:dl2 dl2:1:32:131072:l -cache:il1 il1:1:32:256:l -cache:il2 dl2 shakersort1972988136
	sim-cache -cache:dl1 dl1:1:32:256:l -cache:dl2 dl2:1:32:65536:l -cache:il1 il1:1:32:256:l -cache:il2 dl2 shakersort1972988136
	sim-bpred -bpred bimod -bpred:bimod 512 shakersort1972988136
	sim-bpred -bpred bimod -bpred:bimod 1024 shakersort1972988136
	sim-bpred -bpred bimod -bpred:bimod 2048 shakersort1972988136
	sim-bpred -bpred 2lev -bpred:2lev 1 512 10 1 shakersort1972988136
	sim-bpred -bpred 2lev -bpred:2lev 1 1024 10 1 shakersort1972988136
	sim-bpred -bpred 2lev -bpred:2lev 1 2048 10 1 shakersort1972988136
	sim-bpred -bpred 2lev -bpred:2lev 1 4096 10 1 shakersort1972988136
	sslittle-na-sstrix-gcc -Wall -O3 -funroll-loops -finline-functions  -DRANDOM_SIZE=32768 -DOFFSET=6 -DSORT=shakersort sorts/shakersort691041334.c simpleMain.c -o shakersort1972988136
	sim-cache -cache:dl1 dl1:256:32:1:l -cache:dl2 dl2:131072:32:1:l -cache:il1 il1:256:32:1:l -cache:il2 dl2 shakersort1972988136
	sim-cache -cache:dl1 dl1:256:32:1:l -cache:dl2 dl2:65536:32:1:l -cache:il1 il1:256:32:1:l -cache:il2 dl2 shakersort1972988136
	sim-cache -cache:dl1 dl1:1:32:256:l -cache:dl2 dl2:1:32:131072:l -cache:il1 il1:1:32:256:l -cache:il2 dl2 shakersort1972988136
	sim-cache -cache:dl1 dl1:1:32:256:l -cache:dl2 dl2:1:32:65536:l -cache:il1 il1:1:32:256:l -cache:il2 dl2 shakersort1972988136
	sim-bpred -bpred bimod -bpred:bimod 512 shakersort1972988136
	sim-bpred -bpred bimod -bpred:bimod 1024 shakersort1972988136
	sim-bpred -bpred bimod -bpred:bimod 2048 shakersort1972988136
	sim-bpred -bpred 2lev -bpred:2lev 1 512 10 1 shakersort1972988136
	sim-bpred -bpred 2lev -bpred:2lev 1 1024 10 1 shakersort1972988136
	sim-bpred -bpred 2lev -bpred:2lev 1 2048 10 1 shakersort1972988136
	sim-bpred -bpred 2lev -bpred:2lev 1 4096 10 1 shakersort1972988136
	sslittle-na-sstrix-gcc -Wall -O3 -funroll-loops -finline-functions  -DRANDOM_SIZE=65536 -DOFFSET=6 -DSORT=shakersort sorts/shakersort691041334.c simpleMain.c -o shakersort1972988136
	sim-cache -cache:dl1 dl1:256:32:1:l -cache:dl2 dl2:131072:32:1:l -cache:il1 il1:256:32:1:l -cache:il2 dl2 shakersort1972988136
	sim-cache -cache:dl1 dl1:256:32:1:l -cache:dl2 dl2:65536:32:1:l -cache:il1 il1:256:32:1:l -cache:il2 dl2 shakersort1972988136
	sim-cache -cache:dl1 dl1:1:32:256:l -cache:dl2 dl2:1:32:131072:l -cache:il1 il1:1:32:256:l -cache:il2 dl2 shakersort1972988136
	sim-cache -cache:dl1 dl1:1:32:256:l -cache:dl2 dl2:1:32:65536:l -cache:il1 il1:1:32:256:l -cache:il2 dl2 shakersort1972988136
	sim-bpred -bpred bimod -bpred:bimod 512 shakersort1972988136
	sim-bpred -bpred bimod -bpred:bimod 1024 shakersort1972988136
	sim-bpred -bpred bimod -bpred:bimod 2048 shakersort1972988136
	sim-bpred -bpred 2lev -bpred:2lev 1 512 10 1 shakersort1972988136
	sim-bpred -bpred 2lev -bpred:2lev 1 1024 10 1 shakersort1972988136
	sim-bpred -bpred 2lev -bpred:2lev 1 2048 10 1 shakersort1972988136
	sim-bpred -bpred 2lev -bpred:2lev 1 4096 10 1 shakersort1972988136
