Tue Jul 19 04:43:39 2005
Run as: "./do_simple -c random.org1 -o 5 -M 65536 shakersort"
-------------------------------------------------------------------------------------------------
sim-cache                                     4096 |         4096 |         4096 |         4096 |         8192 |         8192 |         8192 |         8192 |        16384 |        16384 |        16384 |        16384 |        32768 |        32768 |        32768 |        32768 |        65536 |        65536 |        65536 |        65536 |
-cache:dl1 dl1:256:32:1:l -cache:dl2 dl2:131072:32:1:l -cache:il1 il1:256:32:1:l -cache:il2 dl2
-cache:dl1 dl1:256:32:1:l -cache:dl2 dl2:65536:32:1:l -cache:il1 il1:256:32:1:l -cache:il2 dl2
-cache:dl1 dl1:1:32:256:l -cache:dl2 dl2:1:32:131072:l -cache:il1 il1:1:32:256:l -cache:il2 dl2
-cache:dl1 dl1:1:32:256:l -cache:dl2 dl2:1:32:65536:l -cache:il1 il1:1:32:256:l -cache:il2 dl2
-------------------------------------------------------------------------------------------------
sim_num_insn                              47054227 |     47054227 |     47054227 |     47054227 |    187448841 |    187448841 |    187448841 |    187448841 |    748053898 |    748053898 |    748053898 |    748053898 |   2996395269 |   2996395269 |   2996395269 |   2996395269 |  11949674833 |  11949674833 |  11949674833 |  11949674833 |
sim_num_refs                              21118747 |     21118747 |     21118747 |     21118747 |     84126997 |     84126997 |     84126997 |     84126997 |    336247779 |    336247779 |    336247779 |    336247779 |   1346027125 |   1346027125 |   1346027125 |   1346027125 |   5370384013 |   5370384013 |   5370384013 |   5370384013 |
sim_elapsed_time                                14 |           13 |           20 |           16 |           54 |           54 |           62 |           56 |          243 |          242 |          227 |          217 |         1021 |         1019 |          878 |          868 |         4086 |         4087 |         3485 |         3450 |
sim_inst_rate                         3361016.2143 | 3619555.9231 | 2352711.3500 | 2940889.1875 | 3471274.8333 | 3471274.8333 | 3023368.4032 | 3347300.7321 | 3078411.1029 | 3091131.8099 | 3295391.6211 | 3447252.9862 | 2934765.1998 | 2940525.2885 | 3412750.8759 | 3452068.2823 | 2924541.0751 | 2923825.5035 | 3428888.0439 | 3463673.8646 |
il1.accesses                              47054227 |     47054227 |     47054227 |     47054227 |    187448841 |    187448841 |    187448841 |    187448841 |    748053898 |    748053898 |    748053898 |    748053898 |   2996395269 |   2996395269 |   2996395269 |   2996395269 |  11949674833 |  11949674833 |  11949674833 |  11949674833 |
il1.hits                                  47053828 |     47053828 |     47053889 |     47053889 |    187448439 |    187448439 |    187448501 |    187448501 |    748053505 |    748053505 |    748053562 |    748053562 |   2996394866 |   2996394866 |   2996394928 |   2996394928 |  11949674430 |  11949674430 |  11949674492 |  11949674492 |
il1.misses                                     399 |          399 |          338 |          338 |          402 |          402 |          340 |          340 |          393 |          393 |          336 |          336 |          403 |          403 |          341 |          341 |          403 |          403 |          341 |          341 |
il1.replacements                               209 |          209 |           82 |           82 |          212 |          212 |           84 |           84 |          207 |          207 |           80 |           80 |          212 |          212 |           85 |           85 |          212 |          212 |           85 |           85 |
il1.writebacks                                   0 |            0 |            0 |            0 |            0 |            0 |            0 |            0 |            0 |            0 |            0 |            0 |            0 |            0 |            0 |            0 |            0 |            0 |            0 |            0 |
il1.invalidations                                0 |            0 |            0 |            0 |            0 |            0 |            0 |            0 |            0 |            0 |            0 |            0 |            0 |            0 |            0 |            0 |            0 |            0 |            0 |            0 |
il1.miss_rate                               0.0000 |       0.0000 |       0.0000 |       0.0000 |       0.0000 |       0.0000 |       0.0000 |       0.0000 |       0.0000 |       0.0000 |       0.0000 |       0.0000 |       0.0000 |       0.0000 |       0.0000 |       0.0000 |       0.0000 |       0.0000 |       0.0000 |       0.0000 |
il1.repl_rate                               0.0000 |       0.0000 |       0.0000 |       0.0000 |       0.0000 |       0.0000 |       0.0000 |       0.0000 |       0.0000 |       0.0000 |       0.0000 |       0.0000 |       0.0000 |       0.0000 |       0.0000 |       0.0000 |       0.0000 |       0.0000 |       0.0000 |       0.0000 |
il1.wb_rate                                 0.0000 |       0.0000 |       0.0000 |       0.0000 |       0.0000 |       0.0000 |       0.0000 |       0.0000 |       0.0000 |       0.0000 |       0.0000 |       0.0000 |       0.0000 |       0.0000 |       0.0000 |       0.0000 |       0.0000 |       0.0000 |       0.0000 |       0.0000 |
il1.inv_rate                                0.0000 |       0.0000 |       0.0000 |       0.0000 |       0.0000 |       0.0000 |       0.0000 |       0.0000 |       0.0000 |       0.0000 |       0.0000 |       0.0000 |       0.0000 |       0.0000 |       0.0000 |       0.0000 |       0.0000 |       0.0000 |       0.0000 |       0.0000 |
dl1.accesses                              21135213 |     21135213 |     21135213 |     21135213 |     84159847 |     84159847 |     84159847 |     84159847 |    336313397 |    336313397 |    336313397 |    336313397 |   1346158279 |   1346158279 |   1346158279 |   1346158279 |   5370646239 |   5370646239 |   5370646239 |   5370646239 |
dl1.hits                                  20869928 |     20869928 |     20869928 |     20869928 |     82048708 |     82048708 |     82048708 |     82048708 |    325805681 |    325805681 |    325805681 |    325805681 |   1299841677 |   1299841677 |   1299841677 |   1299841677 |   5177595679 |   5177595679 |   5177595679 |   5177595679 |
dl1.misses                                  265285 |       265285 |       265285 |       265285 |      2111139 |      2111139 |      2111139 |      2111139 |     10507716 |     10507716 |     10507716 |     10507716 |     46316602 |     46316602 |     46316602 |     46316602 |    193050560 |    193050560 |    193050560 |    193050560 |
dl1.replacements                            265029 |       265029 |       265029 |       265029 |      2110883 |      2110883 |      2110883 |      2110883 |     10507460 |     10507460 |     10507460 |     10507460 |     46316346 |     46316346 |     46316346 |     46316346 |    193050304 |    193050304 |    193050304 |    193050304 |
dl1.writebacks                              237644 |       237644 |       237644 |       237644 |      1930370 |      1930370 |      1930370 |      1930370 |      9757077 |      9757077 |      9757077 |      9757077 |     42529845 |     42529845 |     42529845 |     42529845 |    175195301 |    175195301 |    175195301 |    175195301 |
dl1.invalidations                                0 |            0 |            0 |            0 |            0 |            0 |            0 |            0 |            0 |            0 |            0 |            0 |            0 |            0 |            0 |            0 |            0 |            0 |            0 |            0 |
dl1.miss_rate                               0.0126 |       0.0126 |       0.0126 |       0.0126 |       0.0251 |       0.0251 |       0.0251 |       0.0251 |       0.0312 |       0.0312 |       0.0312 |       0.0312 |       0.0344 |       0.0344 |       0.0344 |       0.0344 |       0.0359 |       0.0359 |       0.0359 |       0.0359 |
dl1.repl_rate                               0.0125 |       0.0125 |       0.0125 |       0.0125 |       0.0251 |       0.0251 |       0.0251 |       0.0251 |       0.0312 |       0.0312 |       0.0312 |       0.0312 |       0.0344 |       0.0344 |       0.0344 |       0.0344 |       0.0359 |       0.0359 |       0.0359 |       0.0359 |
dl1.wb_rate                                 0.0112 |       0.0112 |       0.0112 |       0.0112 |       0.0229 |       0.0229 |       0.0229 |       0.0229 |       0.0290 |       0.0290 |       0.0290 |       0.0290 |       0.0316 |       0.0316 |       0.0316 |       0.0316 |       0.0326 |       0.0326 |       0.0326 |       0.0326 |
dl1.inv_rate                                0.0000 |       0.0000 |       0.0000 |       0.0000 |       0.0000 |       0.0000 |       0.0000 |       0.0000 |       0.0000 |       0.0000 |       0.0000 |       0.0000 |       0.0000 |       0.0000 |       0.0000 |       0.0000 |       0.0000 |       0.0000 |       0.0000 |       0.0000 |
dl2.accesses                                503328 |       503328 |       503267 |       503267 |      4041911 |      4041911 |      4041849 |      4041849 |     20265186 |     20265186 |     20265129 |     20265129 |     88846850 |     88846850 |     88846788 |     88846788 |    368246264 |    368246264 |    368246202 |    368246202 |
dl2.hits                                    502065 |       502065 |       502006 |       502006 |      4040133 |      4040133 |      4040074 |      4040074 |     20262389 |     20262389 |     20262336 |     20262336 |     88841998 |     88841998 |     88841940 |     88841940 |    368237316 |    368237316 |    368237258 |    368237258 |
dl2.misses                                    1263 |         1263 |         1261 |         1261 |         1778 |         1778 |         1775 |         1775 |         2797 |         2797 |         2793 |         2793 |         4852 |         4852 |         4848 |         4848 |         8948 |         8948 |         8944 |         8944 |
dl2.replacements                                60 |           60 |            0 |            0 |           61 |           61 |            0 |            0 |           63 |           63 |            0 |            0 |           62 |           62 |            0 |            0 |           62 |           62 |            0 |            0 |
dl2.writebacks                                   1 |            1 |            0 |            0 |            2 |            2 |            0 |            0 |            2 |            2 |            0 |            0 |            3 |            3 |            0 |            0 |            3 |            3 |            0 |            0 |
dl2.invalidations                                0 |            0 |            0 |            0 |            0 |            0 |            0 |            0 |            0 |            0 |            0 |            0 |            0 |            0 |            0 |            0 |            0 |            0 |            0 |            0 |
dl2.miss_rate                               0.0025 |       0.0025 |       0.0025 |       0.0025 |       0.0004 |       0.0004 |       0.0004 |       0.0004 |       0.0001 |       0.0001 |       0.0001 |       0.0001 |       0.0001 |       0.0001 |       0.0001 |       0.0001 |       0.0000 |       0.0000 |       0.0000 |       0.0000 |
dl2.repl_rate                               0.0001 |       0.0001 |       0.0000 |       0.0000 |       0.0000 |       0.0000 |       0.0000 |       0.0000 |       0.0000 |       0.0000 |       0.0000 |       0.0000 |       0.0000 |       0.0000 |       0.0000 |       0.0000 |       0.0000 |       0.0000 |       0.0000 |       0.0000 |
dl2.wb_rate                                 0.0000 |       0.0000 |       0.0000 |       0.0000 |       0.0000 |       0.0000 |       0.0000 |       0.0000 |       0.0000 |       0.0000 |       0.0000 |       0.0000 |       0.0000 |       0.0000 |       0.0000 |       0.0000 |       0.0000 |       0.0000 |       0.0000 |       0.0000 |
dl2.inv_rate                                0.0000 |       0.0000 |       0.0000 |       0.0000 |       0.0000 |       0.0000 |       0.0000 |       0.0000 |       0.0000 |       0.0000 |       0.0000 |       0.0000 |       0.0000 |       0.0000 |       0.0000 |       0.0000 |       0.0000 |       0.0000 |       0.0000 |       0.0000 |
itlb.accesses                             47054227 |     47054227 |     47054227 |     47054227 |    187448841 |    187448841 |    187448841 |    187448841 |    748053898 |    748053898 |    748053898 |    748053898 |   2996395269 |   2996395269 |   2996395269 |   2996395269 |  11949674833 |  11949674833 |  11949674833 |  11949674833 |
itlb.hits                                 47054218 |     47054218 |     47054218 |     47054218 |    187448832 |    187448832 |    187448832 |    187448832 |    748053889 |    748053889 |    748053889 |    748053889 |   2996395260 |   2996395260 |   2996395260 |   2996395260 |  11949674824 |  11949674824 |  11949674824 |  11949674824 |
itlb.misses                                      9 |            9 |            9 |            9 |            9 |            9 |            9 |            9 |            9 |            9 |            9 |            9 |            9 |            9 |            9 |            9 |            9 |            9 |            9 |            9 |
itlb.replacements                                0 |            0 |            0 |            0 |            0 |            0 |            0 |            0 |            0 |            0 |            0 |            0 |            0 |            0 |            0 |            0 |            0 |            0 |            0 |            0 |
itlb.writebacks                                  0 |            0 |            0 |            0 |            0 |            0 |            0 |            0 |            0 |            0 |            0 |            0 |            0 |            0 |            0 |            0 |            0 |            0 |            0 |            0 |
itlb.invalidations                               0 |            0 |            0 |            0 |            0 |            0 |            0 |            0 |            0 |            0 |            0 |            0 |            0 |            0 |            0 |            0 |            0 |            0 |            0 |            0 |
itlb.miss_rate                              0.0000 |       0.0000 |       0.0000 |       0.0000 |       0.0000 |       0.0000 |       0.0000 |       0.0000 |       0.0000 |       0.0000 |       0.0000 |       0.0000 |       0.0000 |       0.0000 |       0.0000 |       0.0000 |       0.0000 |       0.0000 |       0.0000 |       0.0000 |
itlb.repl_rate                              0.0000 |       0.0000 |       0.0000 |       0.0000 |       0.0000 |       0.0000 |       0.0000 |       0.0000 |       0.0000 |       0.0000 |       0.0000 |       0.0000 |       0.0000 |       0.0000 |       0.0000 |       0.0000 |       0.0000 |       0.0000 |       0.0000 |       0.0000 |
itlb.wb_rate                                0.0000 |       0.0000 |       0.0000 |       0.0000 |       0.0000 |       0.0000 |       0.0000 |       0.0000 |       0.0000 |       0.0000 |       0.0000 |       0.0000 |       0.0000 |       0.0000 |       0.0000 |       0.0000 |       0.0000 |       0.0000 |       0.0000 |       0.0000 |
itlb.inv_rate                               0.0000 |       0.0000 |       0.0000 |       0.0000 |       0.0000 |       0.0000 |       0.0000 |       0.0000 |       0.0000 |       0.0000 |       0.0000 |       0.0000 |       0.0000 |       0.0000 |       0.0000 |       0.0000 |       0.0000 |       0.0000 |       0.0000 |       0.0000 |
dtlb.accesses                             21135213 |     21135213 |     21135213 |     21135213 |     84159847 |     84159847 |     84159847 |     84159847 |    336313397 |    336313397 |    336313397 |    336313397 |   1346158279 |   1346158279 |   1346158279 |   1346158279 |   5370646239 |   5370646239 |   5370646239 |   5370646239 |
dtlb.hits                                 21135202 |     21135202 |     21135202 |     21135202 |     84159832 |     84159832 |     84159832 |     84159832 |    336313374 |    336313374 |    336313374 |    336313374 |   1346158240 |   1346158240 |   1346158240 |   1346158240 |   5370646168 |   5370646168 |   5370646168 |   5370646168 |
dtlb.misses                                     11 |           11 |           11 |           11 |           15 |           15 |           15 |           15 |           23 |           23 |           23 |           23 |           39 |           39 |           39 |           39 |           71 |           71 |           71 |           71 |
dtlb.replacements                                0 |            0 |            0 |            0 |            0 |            0 |            0 |            0 |            0 |            0 |            0 |            0 |            0 |            0 |            0 |            0 |            0 |            0 |            0 |            0 |
dtlb.writebacks                                  0 |            0 |            0 |            0 |            0 |            0 |            0 |            0 |            0 |            0 |            0 |            0 |            0 |            0 |            0 |            0 |            0 |            0 |            0 |            0 |
dtlb.invalidations                               0 |            0 |            0 |            0 |            0 |            0 |            0 |            0 |            0 |            0 |            0 |            0 |            0 |            0 |            0 |            0 |            0 |            0 |            0 |            0 |
dtlb.miss_rate                              0.0000 |       0.0000 |       0.0000 |       0.0000 |       0.0000 |       0.0000 |       0.0000 |       0.0000 |       0.0000 |       0.0000 |       0.0000 |       0.0000 |       0.0000 |       0.0000 |       0.0000 |       0.0000 |       0.0000 |       0.0000 |       0.0000 |       0.0000 |
dtlb.repl_rate                              0.0000 |       0.0000 |       0.0000 |       0.0000 |       0.0000 |       0.0000 |       0.0000 |       0.0000 |       0.0000 |       0.0000 |       0.0000 |       0.0000 |       0.0000 |       0.0000 |       0.0000 |       0.0000 |       0.0000 |       0.0000 |       0.0000 |       0.0000 |
dtlb.wb_rate                                0.0000 |       0.0000 |       0.0000 |       0.0000 |       0.0000 |       0.0000 |       0.0000 |       0.0000 |       0.0000 |       0.0000 |       0.0000 |       0.0000 |       0.0000 |       0.0000 |       0.0000 |       0.0000 |       0.0000 |       0.0000 |       0.0000 |       0.0000 |
dtlb.inv_rate                               0.0000 |       0.0000 |       0.0000 |       0.0000 |       0.0000 |       0.0000 |       0.0000 |       0.0000 |       0.0000 |       0.0000 |       0.0000 |       0.0000 |       0.0000 |       0.0000 |       0.0000 |       0.0000 |       0.0000 |       0.0000 |       0.0000 |       0.0000 |
ld_text_base                            0x00400000 |   0x00400000 |   0x00400000 |   0x00400000 |   0x00400000 |   0x00400000 |   0x00400000 |   0x00400000 |   0x00400000 |   0x00400000 |   0x00400000 |   0x00400000 |   0x00400000 |   0x00400000 |   0x00400000 |   0x00400000 |   0x00400000 |   0x00400000 |   0x00400000 |   0x00400000 |
ld_text_size                                 71952 |        71952 |        71952 |        71952 |        71984 |        71984 |        71984 |        71984 |        72000 |        72000 |        72000 |        72000 |        72016 |        72016 |        72016 |        72016 |        72016 |        72016 |        72016 |        72016 |
ld_data_base                            0x10000000 |   0x10000000 |   0x10000000 |   0x10000000 |   0x10000000 |   0x10000000 |   0x10000000 |   0x10000000 |   0x10000000 |   0x10000000 |   0x10000000 |   0x10000000 |   0x10000000 |   0x10000000 |   0x10000000 |   0x10000000 |   0x10000000 |   0x10000000 |   0x10000000 |   0x10000000 |
ld_data_size                                  8192 |         8192 |         8192 |         8192 |         8192 |         8192 |         8192 |         8192 |         8192 |         8192 |         8192 |         8192 |         8192 |         8192 |         8192 |         8192 |         8192 |         8192 |         8192 |         8192 |
ld_stack_base                           0x7fffc000 |   0x7fffc000 |   0x7fffc000 |   0x7fffc000 |   0x7fffc000 |   0x7fffc000 |   0x7fffc000 |   0x7fffc000 |   0x7fffc000 |   0x7fffc000 |   0x7fffc000 |   0x7fffc000 |   0x7fffc000 |   0x7fffc000 |   0x7fffc000 |   0x7fffc000 |   0x7fffc000 |   0x7fffc000 |   0x7fffc000 |   0x7fffc000 |
ld_stack_size                                16384 |        16384 |        16384 |        16384 |        16384 |        16384 |        16384 |        16384 |        16384 |        16384 |        16384 |        16384 |        16384 |        16384 |        16384 |        16384 |        16384 |        16384 |        16384 |        16384 |
ld_prog_entry                           0x00400140 |   0x00400140 |   0x00400140 |   0x00400140 |   0x00400140 |   0x00400140 |   0x00400140 |   0x00400140 |   0x00400140 |   0x00400140 |   0x00400140 |   0x00400140 |   0x00400140 |   0x00400140 |   0x00400140 |   0x00400140 |   0x00400140 |   0x00400140 |   0x00400140 |   0x00400140 |
ld_environ_base                         0x7fff8000 |   0x7fff8000 |   0x7fff8000 |   0x7fff8000 |   0x7fff8000 |   0x7fff8000 |   0x7fff8000 |   0x7fff8000 |   0x7fff8000 |   0x7fff8000 |   0x7fff8000 |   0x7fff8000 |   0x7fff8000 |   0x7fff8000 |   0x7fff8000 |   0x7fff8000 |   0x7fff8000 |   0x7fff8000 |   0x7fff8000 |   0x7fff8000 |
ld_target_big_endian                             0 |            0 |            0 |            0 |            0 |            0 |            0 |            0 |            0 |            0 |            0 |            0 |            0 |            0 |            0 |            0 |            0 |            0 |            0 |            0 |
mem.page_count                                  29 |           29 |           29 |           29 |           33 |           33 |           33 |           33 |           41 |           41 |           41 |           41 |           57 |           57 |           57 |           57 |           89 |           89 |           89 |           89 |
mem.page_mem                                  116k |         116k |         116k |         116k |         132k |         132k |         132k |         132k |         164k |         164k |         164k |         164k |         228k |         228k |         228k |         228k |         356k |         356k |         356k |         356k |
mem.ptab_misses                                 29 |           29 |           29 |           29 |           33 |           33 |           33 |           33 |           41 |           41 |           41 |           41 |           57 |           57 |           57 |           57 |           89 |           89 |           89 |           89 |
mem.ptab_accesses                        230933624 |    230933624 |    230933624 |    230933624 |    918561540 |    918561540 |    918561540 |    918561540 |   3665288964 |   3665288964 |   3665288964 |   3665288964 |  14678344308 |  14678344308 |  14678344308 |  14678344308 |  58540438484 |  58540438484 |  58540438484 |  58540438484 |
mem.ptab_miss_rate                          0.0000 |       0.0000 |       0.0000 |       0.0000 |       0.0000 |       0.0000 |       0.0000 |       0.0000 |       0.0000 |       0.0000 |       0.0000 |       0.0000 |       0.0000 |       0.0000 |       0.0000 |       0.0000 |       0.0000 |       0.0000 |       0.0000 |       0.0000 |
-------------------------------------------------------------------------------------------------
sim-bpred                                     4096 |         4096 |         4096 |         4096 |         4096 |         4096 |         4096 |         8192 |         8192 |         8192 |         8192 |         8192 |         8192 |         8192 |        16384 |        16384 |        16384 |        16384 |        16384 |        16384 |        16384 |        32768 |        32768 |        32768 |        32768 |        32768 |        32768 |        32768 |        65536 |        65536 |        65536 |        65536 |        65536 |        65536 |        65536 |
-bpred bimod -bpred:bimod 512
-bpred bimod -bpred:bimod 1024
-bpred bimod -bpred:bimod 2048
-bpred 2lev -bpred:2lev 1 512 10 1
-bpred 2lev -bpred:2lev 1 1024 10 1
-bpred 2lev -bpred:2lev 1 2048 10 1
-bpred 2lev -bpred:2lev 1 4096 10 1
-------------------------------------------------------------------------------------------------
sim_num_insn                              47054227 |     47054227 |     47054227 |     47054227 |     47054227 |     47054227 |     47054227 |    187448841 |    187448841 |    187448841 |    187448841 |    187448841 |    187448841 |    187448841 |    748053898 |    748053898 |    748053898 |    748053898 |    748053898 |    748053898 |    748053898 |   2996395269 |   2996395269 |   2996395269 |   2996395269 |   2996395269 |   2996395269 |   2996395269 |  11949674833 |  11949674833 |  11949674833 |  11949674833 |  11949674833 |  11949674833 |  11949674833 |
sim_num_refs                              21118747 |     21118747 |     21118747 |     21118747 |     21118747 |     21118747 |     21118747 |     84126997 |     84126997 |     84126997 |     84126997 |     84126997 |     84126997 |     84126997 |    336247779 |    336247779 |    336247779 |    336247779 |    336247779 |    336247779 |    336247779 |   1346027125 |   1346027125 |   1346027125 |   1346027125 |   1346027125 |   1346027125 |   1346027125 |   5370384013 |   5370384013 |   5370384013 |   5370384013 |   5370384013 |   5370384013 |   5370384013 |
sim_elapsed_time                                 5 |            6 |            5 |            6 |            5 |            6 |            8 |           21 |           22 |           22 |           35 |           24 |           22 |           23 |           88 |           87 |           87 |           88 |           87 |           88 |           92 |          349 |          350 |          350 |          353 |          355 |          355 |          367 |         1401 |         1402 |         1401 |         1417 |         1419 |         1425 |         1470 |
sim_inst_rate                         9410845.4000 | 7842371.1667 | 9410845.4000 | 7842371.1667 | 9410845.4000 | 7842371.1667 | 5881778.3750 | 8926135.2857 | 8520401.8636 | 8520401.8636 | 5355681.1714 | 7810368.3750 | 8520401.8636 | 8149949.6087 | 8500612.4773 | 8598320.6667 | 8598320.6667 | 8500612.4773 | 8598320.6667 | 8500612.4773 | 8131020.6304 | 8585659.7966 | 8561129.3400 | 8561129.3400 | 8488371.8669 | 8440550.0535 | 8440550.0535 | 8164564.7657 | 8529389.6024 | 8523305.8723 | 8529389.6024 | 8433080.3338 | 8421194.3855 | 8385736.7249 | 8129030.4986 |
sim_num_branches                           7944555 |      7944555 |      7944555 |      7944555 |      7944555 |      7944555 |      7944555 |     31637733 |     31637733 |     31637733 |     31637733 |     31637733 |     31637733 |     31637733 |    126005924 |    126005924 |    126005924 |    126005924 |    126005924 |    126005924 |    126005924 |    505180509 |    505180509 |    505180509 |    505180509 |    505180509 |    505180509 |    505180509 |   2014134884 |   2014134884 |   2014134884 |   2014134884 |   2014134884 |   2014134884 |   2014134884 |
sim_IPB                                     5.9228 |       5.9228 |       5.9228 |       5.9228 |       5.9228 |       5.9228 |       5.9228 |       5.9249 |       5.9249 |       5.9249 |       5.9249 |       5.9249 |       5.9249 |       5.9249 |       5.9367 |       5.9367 |       5.9367 |       5.9367 |       5.9367 |       5.9367 |       5.9367 |       5.9313 |       5.9313 |       5.9313 |       5.9313 |       5.9313 |       5.9313 |       5.9313 |       5.9329 |       5.9329 |       5.9329 |       5.9329 |       5.9329 |       5.9329 |       5.9329 |
bpred_bimod.lookups                        7944555 |      7944555 |      7944555 |xxxxxxxxxxxxx |xxxxxxxxxxxxx |xxxxxxxxxxxxx |xxxxxxxxxxxxx |     31637733 |     31637733 |     31637733 |xxxxxxxxxxxxx |xxxxxxxxxxxxx |xxxxxxxxxxxxx |xxxxxxxxxxxxx |    126005924 |    126005924 |    126005924 |xxxxxxxxxxxxx |xxxxxxxxxxxxx |xxxxxxxxxxxxx |xxxxxxxxxxxxx |    505180509 |    505180509 |    505180509 |xxxxxxxxxxxxx |xxxxxxxxxxxxx |xxxxxxxxxxxxx |xxxxxxxxxxxxx |   2014134884 |   2014134884 |   2014134884 |
bpred_bimod.updates                        7944555 |      7944555 |      7944555 |xxxxxxxxxxxxx |xxxxxxxxxxxxx |xxxxxxxxxxxxx |xxxxxxxxxxxxx |     31637733 |     31637733 |     31637733 |xxxxxxxxxxxxx |xxxxxxxxxxxxx |xxxxxxxxxxxxx |xxxxxxxxxxxxx |    126005924 |    126005924 |    126005924 |xxxxxxxxxxxxx |xxxxxxxxxxxxx |xxxxxxxxxxxxx |xxxxxxxxxxxxx |    505180509 |    505180509 |    505180509 |xxxxxxxxxxxxx |xxxxxxxxxxxxx |xxxxxxxxxxxxx |xxxxxxxxxxxxx |   2014134884 |   2014134884 |   2014134884 |
bpred_bimod.addr_hits                      6536092 |      6536094 |      6536096 |xxxxxxxxxxxxx |xxxxxxxxxxxxx |xxxxxxxxxxxxx |xxxxxxxxxxxxx |     25941646 |     25941649 |     25941652 |xxxxxxxxxxxxx |xxxxxxxxxxxxx |xxxxxxxxxxxxx |xxxxxxxxxxxxx |    103517410 |    103517412 |    103517412 |xxxxxxxxxxxxx |xxxxxxxxxxxxx |xxxxxxxxxxxxx |xxxxxxxxxxxxx |    415538974 |    415538976 |    415538977 |xxxxxxxxxxxxx |xxxxxxxxxxxxx |xxxxxxxxxxxxx |xxxxxxxxxxxxx |   1655699910 |   1655699912 |   1655699913 |
bpred_bimod.dir_hits                       6536191 |      6536192 |      6536191 |xxxxxxxxxxxxx |xxxxxxxxxxxxx |xxxxxxxxxxxxx |xxxxxxxxxxxxx |     25941747 |     25941747 |     25941749 |xxxxxxxxxxxxx |xxxxxxxxxxxxx |xxxxxxxxxxxxx |xxxxxxxxxxxxx |    103517509 |    103517509 |    103517507 |xxxxxxxxxxxxx |xxxxxxxxxxxxx |xxxxxxxxxxxxx |xxxxxxxxxxxxx |    415539075 |    415539076 |    415539074 |xxxxxxxxxxxxx |xxxxxxxxxxxxx |xxxxxxxxxxxxx |xxxxxxxxxxxxx |   1655700010 |   1655700011 |   1655700009 |
bpred_bimod.misses                         1408364 |      1408363 |      1408364 |xxxxxxxxxxxxx |xxxxxxxxxxxxx |xxxxxxxxxxxxx |xxxxxxxxxxxxx |      5695986 |      5695986 |      5695984 |xxxxxxxxxxxxx |xxxxxxxxxxxxx |xxxxxxxxxxxxx |xxxxxxxxxxxxx |     22488415 |     22488415 |     22488417 |xxxxxxxxxxxxx |xxxxxxxxxxxxx |xxxxxxxxxxxxx |xxxxxxxxxxxxx |     89641434 |     89641433 |     89641435 |xxxxxxxxxxxxx |xxxxxxxxxxxxx |xxxxxxxxxxxxx |xxxxxxxxxxxxx |    358434874 |    358434873 |    358434875 |
bpred_bimod.jr_hits                             57 |           57 |           57 |xxxxxxxxxxxxx |xxxxxxxxxxxxx |xxxxxxxxxxxxx |xxxxxxxxxxxxx |           57 |           57 |           57 |xxxxxxxxxxxxx |xxxxxxxxxxxxx |xxxxxxxxxxxxx |xxxxxxxxxxxxx |           57 |           57 |           57 |xxxxxxxxxxxxx |xxxxxxxxxxxxx |xxxxxxxxxxxxx |xxxxxxxxxxxxx |           57 |           57 |           57 |xxxxxxxxxxxxx |xxxxxxxxxxxxx |xxxxxxxxxxxxx |xxxxxxxxxxxxx |           57 |           57 |           57 |
bpred_bimod.jr_seen                             58 |           58 |           58 |xxxxxxxxxxxxx |xxxxxxxxxxxxx |xxxxxxxxxxxxx |xxxxxxxxxxxxx |           58 |           58 |           58 |xxxxxxxxxxxxx |xxxxxxxxxxxxx |xxxxxxxxxxxxx |xxxxxxxxxxxxx |           58 |           58 |           58 |xxxxxxxxxxxxx |xxxxxxxxxxxxx |xxxxxxxxxxxxx |xxxxxxxxxxxxx |           58 |           58 |           58 |xxxxxxxxxxxxx |xxxxxxxxxxxxx |xxxxxxxxxxxxx |xxxxxxxxxxxxx |           58 |           58 |           58 |
bpred_bimod.jr_non_ras_hits.PP                   0 |            0 |            0 |xxxxxxxxxxxxx |xxxxxxxxxxxxx |xxxxxxxxxxxxx |xxxxxxxxxxxxx |            0 |            0 |            0 |xxxxxxxxxxxxx |xxxxxxxxxxxxx |xxxxxxxxxxxxx |xxxxxxxxxxxxx |            0 |            0 |            0 |xxxxxxxxxxxxx |xxxxxxxxxxxxx |xxxxxxxxxxxxx |xxxxxxxxxxxxx |            0 |            0 |            0 |xxxxxxxxxxxxx |xxxxxxxxxxxxx |xxxxxxxxxxxxx |xxxxxxxxxxxxx |            0 |            0 |            0 |
bpred_bimod.jr_non_ras_seen.PP                   0 |            0 |            0 |xxxxxxxxxxxxx |xxxxxxxxxxxxx |xxxxxxxxxxxxx |xxxxxxxxxxxxx |            0 |            0 |            0 |xxxxxxxxxxxxx |xxxxxxxxxxxxx |xxxxxxxxxxxxx |xxxxxxxxxxxxx |            0 |            0 |            0 |xxxxxxxxxxxxx |xxxxxxxxxxxxx |xxxxxxxxxxxxx |xxxxxxxxxxxxx |            0 |            0 |            0 |xxxxxxxxxxxxx |xxxxxxxxxxxxx |xxxxxxxxxxxxx |xxxxxxxxxxxxx |            0 |            0 |            0 |
bpred_bimod.bpred_addr_rate                 0.8227 |       0.8227 |       0.8227 |xxxxxxxxxxxxx |xxxxxxxxxxxxx |xxxxxxxxxxxxx |xxxxxxxxxxxxx |       0.8200 |       0.8200 |       0.8200 |xxxxxxxxxxxxx |xxxxxxxxxxxxx |xxxxxxxxxxxxx |xxxxxxxxxxxxx |       0.8215 |       0.8215 |       0.8215 |xxxxxxxxxxxxx |xxxxxxxxxxxxx |xxxxxxxxxxxxx |xxxxxxxxxxxxx |       0.8226 |       0.8226 |       0.8226 |xxxxxxxxxxxxx |xxxxxxxxxxxxx |xxxxxxxxxxxxx |xxxxxxxxxxxxx |       0.8220 |       0.8220 |       0.8220 |
bpred_bimod.bpred_dir_rate                  0.8227 |       0.8227 |       0.8227 |xxxxxxxxxxxxx |xxxxxxxxxxxxx |xxxxxxxxxxxxx |xxxxxxxxxxxxx |       0.8200 |       0.8200 |       0.8200 |xxxxxxxxxxxxx |xxxxxxxxxxxxx |xxxxxxxxxxxxx |xxxxxxxxxxxxx |       0.8215 |       0.8215 |       0.8215 |xxxxxxxxxxxxx |xxxxxxxxxxxxx |xxxxxxxxxxxxx |xxxxxxxxxxxxx |       0.8226 |       0.8226 |       0.8226 |xxxxxxxxxxxxx |xxxxxxxxxxxxx |xxxxxxxxxxxxx |xxxxxxxxxxxxx |       0.8220 |       0.8220 |       0.8220 |
bpred_bimod.bpred_jr_rate                   0.9828 |       0.9828 |       0.9828 |xxxxxxxxxxxxx |xxxxxxxxxxxxx |xxxxxxxxxxxxx |xxxxxxxxxxxxx |       0.9828 |       0.9828 |       0.9828 |xxxxxxxxxxxxx |xxxxxxxxxxxxx |xxxxxxxxxxxxx |xxxxxxxxxxxxx |       0.9828 |       0.9828 |       0.9828 |xxxxxxxxxxxxx |xxxxxxxxxxxxx |xxxxxxxxxxxxx |xxxxxxxxxxxxx |       0.9828 |       0.9828 |       0.9828 |xxxxxxxxxxxxx |xxxxxxxxxxxxx |xxxxxxxxxxxxx |xxxxxxxxxxxxx |       0.9828 |       0.9828 |       0.9828 |
bpred_bimod.bpred_jr_non_ras_rate.PP       <error: |      <error: |      <error: |xxxxxxxxxxxxx |xxxxxxxxxxxxx |xxxxxxxxxxxxx |xxxxxxxxxxxxx |      <error: |      <error: |      <error: |xxxxxxxxxxxxx |xxxxxxxxxxxxx |xxxxxxxxxxxxx |xxxxxxxxxxxxx |      <error: |      <error: |      <error: |xxxxxxxxxxxxx |xxxxxxxxxxxxx |xxxxxxxxxxxxx |xxxxxxxxxxxxx |      <error: |      <error: |      <error: |xxxxxxxxxxxxx |xxxxxxxxxxxxx |xxxxxxxxxxxxx |xxxxxxxxxxxxx |      <error: |      <error: |      <error: |
bpred_bimod.retstack_pushes                     60 |           60 |           60 |xxxxxxxxxxxxx |xxxxxxxxxxxxx |xxxxxxxxxxxxx |xxxxxxxxxxxxx |           60 |           60 |           60 |xxxxxxxxxxxxx |xxxxxxxxxxxxx |xxxxxxxxxxxxx |xxxxxxxxxxxxx |           60 |           60 |           60 |xxxxxxxxxxxxx |xxxxxxxxxxxxx |xxxxxxxxxxxxx |xxxxxxxxxxxxx |           60 |           60 |           60 |xxxxxxxxxxxxx |xxxxxxxxxxxxx |xxxxxxxxxxxxx |xxxxxxxxxxxxx |           60 |           60 |           60 |
bpred_bimod.retstack_pops                       58 |           58 |           58 |xxxxxxxxxxxxx |xxxxxxxxxxxxx |xxxxxxxxxxxxx |xxxxxxxxxxxxx |           58 |           58 |           58 |xxxxxxxxxxxxx |xxxxxxxxxxxxx |xxxxxxxxxxxxx |xxxxxxxxxxxxx |           58 |           58 |           58 |xxxxxxxxxxxxx |xxxxxxxxxxxxx |xxxxxxxxxxxxx |xxxxxxxxxxxxx |           58 |           58 |           58 |xxxxxxxxxxxxx |xxxxxxxxxxxxx |xxxxxxxxxxxxx |xxxxxxxxxxxxx |           58 |           58 |           58 |
bpred_bimod.used_ras.PP                         58 |           58 |           58 |xxxxxxxxxxxxx |xxxxxxxxxxxxx |xxxxxxxxxxxxx |xxxxxxxxxxxxx |           58 |           58 |           58 |xxxxxxxxxxxxx |xxxxxxxxxxxxx |xxxxxxxxxxxxx |xxxxxxxxxxxxx |           58 |           58 |           58 |xxxxxxxxxxxxx |xxxxxxxxxxxxx |xxxxxxxxxxxxx |xxxxxxxxxxxxx |           58 |           58 |           58 |xxxxxxxxxxxxx |xxxxxxxxxxxxx |xxxxxxxxxxxxx |xxxxxxxxxxxxx |           58 |           58 |           58 |
bpred_bimod.ras_hits.PP                         57 |           57 |           57 |xxxxxxxxxxxxx |xxxxxxxxxxxxx |xxxxxxxxxxxxx |xxxxxxxxxxxxx |           57 |           57 |           57 |xxxxxxxxxxxxx |xxxxxxxxxxxxx |xxxxxxxxxxxxx |xxxxxxxxxxxxx |           57 |           57 |           57 |xxxxxxxxxxxxx |xxxxxxxxxxxxx |xxxxxxxxxxxxx |xxxxxxxxxxxxx |           57 |           57 |           57 |xxxxxxxxxxxxx |xxxxxxxxxxxxx |xxxxxxxxxxxxx |xxxxxxxxxxxxx |           57 |           57 |           57 |
bpred_bimod.ras_rate.PP                     0.9828 |       0.9828 |       0.9828 |xxxxxxxxxxxxx |xxxxxxxxxxxxx |xxxxxxxxxxxxx |xxxxxxxxxxxxx |       0.9828 |       0.9828 |       0.9828 |xxxxxxxxxxxxx |xxxxxxxxxxxxx |xxxxxxxxxxxxx |xxxxxxxxxxxxx |       0.9828 |       0.9828 |       0.9828 |xxxxxxxxxxxxx |xxxxxxxxxxxxx |xxxxxxxxxxxxx |xxxxxxxxxxxxx |       0.9828 |       0.9828 |       0.9828 |xxxxxxxxxxxxx |xxxxxxxxxxxxx |xxxxxxxxxxxxx |xxxxxxxxxxxxx |       0.9828 |       0.9828 |       0.9828 |
bpred_2lev.lookups                   xxxxxxxxxxxxx |xxxxxxxxxxxxx |xxxxxxxxxxxxx |      7944555 |      7944555 |      7944555 |      7944555 |xxxxxxxxxxxxx |xxxxxxxxxxxxx |xxxxxxxxxxxxx |     31637733 |     31637733 |     31637733 |     31637733 |xxxxxxxxxxxxx |xxxxxxxxxxxxx |xxxxxxxxxxxxx |    126005924 |    126005924 |    126005924 |    126005924 |xxxxxxxxxxxxx |xxxxxxxxxxxxx |xxxxxxxxxxxxx |    505180509 |    505180509 |    505180509 |    505180509 |xxxxxxxxxxxxx |xxxxxxxxxxxxx |xxxxxxxxxxxxx |   2014134884 |   2014134884 |   2014134884 |   2014134884 |
bpred_2lev.updates                   xxxxxxxxxxxxx |xxxxxxxxxxxxx |xxxxxxxxxxxxx |      7944555 |      7944555 |      7944555 |      7944555 |xxxxxxxxxxxxx |xxxxxxxxxxxxx |xxxxxxxxxxxxx |     31637733 |     31637733 |     31637733 |     31637733 |xxxxxxxxxxxxx |xxxxxxxxxxxxx |xxxxxxxxxxxxx |    126005924 |    126005924 |    126005924 |    126005924 |xxxxxxxxxxxxx |xxxxxxxxxxxxx |xxxxxxxxxxxxx |    505180509 |    505180509 |    505180509 |    505180509 |xxxxxxxxxxxxx |xxxxxxxxxxxxx |xxxxxxxxxxxxx |   2014134884 |   2014134884 |   2014134884 |   2014134884 |
bpred_2lev.addr_hits                 xxxxxxxxxxxxx |xxxxxxxxxxxxx |xxxxxxxxxxxxx |      5972438 |      6187678 |      6336897 |      6406755 |xxxxxxxxxxxxx |xxxxxxxxxxxxx |xxxxxxxxxxxxx |     24012120 |     24615859 |     25059926 |     25245598 |xxxxxxxxxxxxx |xxxxxxxxxxxxx |xxxxxxxxxxxxx |     96999895 |     98944750 |    100191023 |    100686255 |xxxxxxxxxxxxx |xxxxxxxxxxxxx |xxxxxxxxxxxxx |    392675545 |    400189951 |    404036476 |    405317410 |xxxxxxxxxxxxx |xxxxxxxxxxxxx |xxxxxxxxxxxxx |   1574136655 |   1604772029 |   1618646849 |   1622674400 |
bpred_2lev.dir_hits                  xxxxxxxxxxxxx |xxxxxxxxxxxxx |xxxxxxxxxxxxx |      5972559 |      6187796 |      6337007 |      6406859 |xxxxxxxxxxxxx |xxxxxxxxxxxxx |xxxxxxxxxxxxx |     24012235 |     24615970 |     25060026 |     25245695 |xxxxxxxxxxxxx |xxxxxxxxxxxxx |xxxxxxxxxxxxx |     97000016 |     98944868 |    100191130 |    100686362 |xxxxxxxxxxxxx |xxxxxxxxxxxxx |xxxxxxxxxxxxx |    392675664 |    400190065 |    404036578 |    405317509 |xxxxxxxxxxxxx |xxxxxxxxxxxxx |xxxxxxxxxxxxx |   1574136775 |   1604772140 |   1618646957 |   1622674500 |
bpred_2lev.misses                    xxxxxxxxxxxxx |xxxxxxxxxxxxx |xxxxxxxxxxxxx |      1971996 |      1756759 |      1607548 |      1537696 |xxxxxxxxxxxxx |xxxxxxxxxxxxx |xxxxxxxxxxxxx |      7625498 |      7021763 |      6577707 |      6392038 |xxxxxxxxxxxxx |xxxxxxxxxxxxx |xxxxxxxxxxxxx |     29005908 |     27061056 |     25814794 |     25319562 |xxxxxxxxxxxxx |xxxxxxxxxxxxx |xxxxxxxxxxxxx |    112504845 |    104990444 |    101143931 |     99863000 |xxxxxxxxxxxxx |xxxxxxxxxxxxx |xxxxxxxxxxxxx |    439998109 |    409362744 |    395487927 |    391460384 |
bpred_2lev.jr_hits                   xxxxxxxxxxxxx |xxxxxxxxxxxxx |xxxxxxxxxxxxx |           57 |           57 |           57 |           57 |xxxxxxxxxxxxx |xxxxxxxxxxxxx |xxxxxxxxxxxxx |           57 |           57 |           57 |           57 |xxxxxxxxxxxxx |xxxxxxxxxxxxx |xxxxxxxxxxxxx |           57 |           57 |           57 |           57 |xxxxxxxxxxxxx |xxxxxxxxxxxxx |xxxxxxxxxxxxx |           57 |           57 |           57 |           57 |xxxxxxxxxxxxx |xxxxxxxxxxxxx |xxxxxxxxxxxxx |           57 |           57 |           57 |           57 |
bpred_2lev.jr_seen                   xxxxxxxxxxxxx |xxxxxxxxxxxxx |xxxxxxxxxxxxx |           58 |           58 |           58 |           58 |xxxxxxxxxxxxx |xxxxxxxxxxxxx |xxxxxxxxxxxxx |           58 |           58 |           58 |           58 |xxxxxxxxxxxxx |xxxxxxxxxxxxx |xxxxxxxxxxxxx |           58 |           58 |           58 |           58 |xxxxxxxxxxxxx |xxxxxxxxxxxxx |xxxxxxxxxxxxx |           58 |           58 |           58 |           58 |xxxxxxxxxxxxx |xxxxxxxxxxxxx |xxxxxxxxxxxxx |           58 |           58 |           58 |           58 |
bpred_2lev.jr_non_ras_hits.PP        xxxxxxxxxxxxx |xxxxxxxxxxxxx |xxxxxxxxxxxxx |            0 |            0 |            0 |            0 |xxxxxxxxxxxxx |xxxxxxxxxxxxx |xxxxxxxxxxxxx |            0 |            0 |            0 |            0 |xxxxxxxxxxxxx |xxxxxxxxxxxxx |xxxxxxxxxxxxx |            0 |            0 |            0 |            0 |xxxxxxxxxxxxx |xxxxxxxxxxxxx |xxxxxxxxxxxxx |            0 |            0 |            0 |            0 |xxxxxxxxxxxxx |xxxxxxxxxxxxx |xxxxxxxxxxxxx |            0 |            0 |            0 |            0 |
bpred_2lev.jr_non_ras_seen.PP        xxxxxxxxxxxxx |xxxxxxxxxxxxx |xxxxxxxxxxxxx |            0 |            0 |            0 |            0 |xxxxxxxxxxxxx |xxxxxxxxxxxxx |xxxxxxxxxxxxx |            0 |            0 |            0 |            0 |xxxxxxxxxxxxx |xxxxxxxxxxxxx |xxxxxxxxxxxxx |            0 |            0 |            0 |            0 |xxxxxxxxxxxxx |xxxxxxxxxxxxx |xxxxxxxxxxxxx |            0 |            0 |            0 |            0 |xxxxxxxxxxxxx |xxxxxxxxxxxxx |xxxxxxxxxxxxx |            0 |            0 |            0 |            0 |
bpred_2lev.bpred_addr_rate           xxxxxxxxxxxxx |xxxxxxxxxxxxx |xxxxxxxxxxxxx |       0.7518 |       0.7789 |       0.7976 |       0.8064 |xxxxxxxxxxxxx |xxxxxxxxxxxxx |xxxxxxxxxxxxx |       0.7590 |       0.7781 |       0.7921 |       0.7980 |xxxxxxxxxxxxx |xxxxxxxxxxxxx |xxxxxxxxxxxxx |       0.7698 |       0.7852 |       0.7951 |       0.7991 |xxxxxxxxxxxxx |xxxxxxxxxxxxx |xxxxxxxxxxxxx |       0.7773 |       0.7922 |       0.7998 |       0.8023 |xxxxxxxxxxxxx |xxxxxxxxxxxxx |xxxxxxxxxxxxx |       0.7815 |       0.7968 |       0.8036 |       0.8056 |
bpred_2lev.bpred_dir_rate            xxxxxxxxxxxxx |xxxxxxxxxxxxx |xxxxxxxxxxxxx |       0.7518 |       0.7789 |       0.7977 |       0.8064 |xxxxxxxxxxxxx |xxxxxxxxxxxxx |xxxxxxxxxxxxx |       0.7590 |       0.7781 |       0.7921 |       0.7980 |xxxxxxxxxxxxx |xxxxxxxxxxxxx |xxxxxxxxxxxxx |       0.7698 |       0.7852 |       0.7951 |       0.7991 |xxxxxxxxxxxxx |xxxxxxxxxxxxx |xxxxxxxxxxxxx |       0.7773 |       0.7922 |       0.7998 |       0.8023 |xxxxxxxxxxxxx |xxxxxxxxxxxxx |xxxxxxxxxxxxx |       0.7815 |       0.7968 |       0.8036 |       0.8056 |
bpred_2lev.bpred_jr_rate             xxxxxxxxxxxxx |xxxxxxxxxxxxx |xxxxxxxxxxxxx |       0.9828 |       0.9828 |       0.9828 |       0.9828 |xxxxxxxxxxxxx |xxxxxxxxxxxxx |xxxxxxxxxxxxx |       0.9828 |       0.9828 |       0.9828 |       0.9828 |xxxxxxxxxxxxx |xxxxxxxxxxxxx |xxxxxxxxxxxxx |       0.9828 |       0.9828 |       0.9828 |       0.9828 |xxxxxxxxxxxxx |xxxxxxxxxxxxx |xxxxxxxxxxxxx |       0.9828 |       0.9828 |       0.9828 |       0.9828 |xxxxxxxxxxxxx |xxxxxxxxxxxxx |xxxxxxxxxxxxx |       0.9828 |       0.9828 |       0.9828 |       0.9828 |
bpred_2lev.bpred_jr_non_ras_rate.PP  xxxxxxxxxxxxx |xxxxxxxxxxxxx |xxxxxxxxxxxxx |      <error: |      <error: |      <error: |      <error: |xxxxxxxxxxxxx |xxxxxxxxxxxxx |xxxxxxxxxxxxx |      <error: |      <error: |      <error: |      <error: |xxxxxxxxxxxxx |xxxxxxxxxxxxx |xxxxxxxxxxxxx |      <error: |      <error: |      <error: |      <error: |xxxxxxxxxxxxx |xxxxxxxxxxxxx |xxxxxxxxxxxxx |      <error: |      <error: |      <error: |      <error: |xxxxxxxxxxxxx |xxxxxxxxxxxxx |xxxxxxxxxxxxx |      <error: |      <error: |      <error: |      <error: |
bpred_2lev.retstack_pushes           xxxxxxxxxxxxx |xxxxxxxxxxxxx |xxxxxxxxxxxxx |           60 |           60 |           60 |           60 |xxxxxxxxxxxxx |xxxxxxxxxxxxx |xxxxxxxxxxxxx |           60 |           60 |           60 |           60 |xxxxxxxxxxxxx |xxxxxxxxxxxxx |xxxxxxxxxxxxx |           60 |           60 |           60 |           60 |xxxxxxxxxxxxx |xxxxxxxxxxxxx |xxxxxxxxxxxxx |           60 |           60 |           60 |           60 |xxxxxxxxxxxxx |xxxxxxxxxxxxx |xxxxxxxxxxxxx |           60 |           60 |           60 |           60 |
bpred_2lev.retstack_pops             xxxxxxxxxxxxx |xxxxxxxxxxxxx |xxxxxxxxxxxxx |           58 |           58 |           58 |           58 |xxxxxxxxxxxxx |xxxxxxxxxxxxx |xxxxxxxxxxxxx |           58 |           58 |           58 |           58 |xxxxxxxxxxxxx |xxxxxxxxxxxxx |xxxxxxxxxxxxx |           58 |           58 |           58 |           58 |xxxxxxxxxxxxx |xxxxxxxxxxxxx |xxxxxxxxxxxxx |           58 |           58 |           58 |           58 |xxxxxxxxxxxxx |xxxxxxxxxxxxx |xxxxxxxxxxxxx |           58 |           58 |           58 |           58 |
bpred_2lev.used_ras.PP               xxxxxxxxxxxxx |xxxxxxxxxxxxx |xxxxxxxxxxxxx |           58 |           58 |           58 |           58 |xxxxxxxxxxxxx |xxxxxxxxxxxxx |xxxxxxxxxxxxx |           58 |           58 |           58 |           58 |xxxxxxxxxxxxx |xxxxxxxxxxxxx |xxxxxxxxxxxxx |           58 |           58 |           58 |           58 |xxxxxxxxxxxxx |xxxxxxxxxxxxx |xxxxxxxxxxxxx |           58 |           58 |           58 |           58 |xxxxxxxxxxxxx |xxxxxxxxxxxxx |xxxxxxxxxxxxx |           58 |           58 |           58 |           58 |
bpred_2lev.ras_hits.PP               xxxxxxxxxxxxx |xxxxxxxxxxxxx |xxxxxxxxxxxxx |           57 |           57 |           57 |           57 |xxxxxxxxxxxxx |xxxxxxxxxxxxx |xxxxxxxxxxxxx |           57 |           57 |           57 |           57 |xxxxxxxxxxxxx |xxxxxxxxxxxxx |xxxxxxxxxxxxx |           57 |           57 |           57 |           57 |xxxxxxxxxxxxx |xxxxxxxxxxxxx |xxxxxxxxxxxxx |           57 |           57 |           57 |           57 |xxxxxxxxxxxxx |xxxxxxxxxxxxx |xxxxxxxxxxxxx |           57 |           57 |           57 |           57 |
bpred_2lev.ras_rate.PP               xxxxxxxxxxxxx |xxxxxxxxxxxxx |xxxxxxxxxxxxx |       0.9828 |       0.9828 |       0.9828 |       0.9828 |xxxxxxxxxxxxx |xxxxxxxxxxxxx |xxxxxxxxxxxxx |       0.9828 |       0.9828 |       0.9828 |       0.9828 |xxxxxxxxxxxxx |xxxxxxxxxxxxx |xxxxxxxxxxxxx |       0.9828 |       0.9828 |       0.9828 |       0.9828 |xxxxxxxxxxxxx |xxxxxxxxxxxxx |xxxxxxxxxxxxx |       0.9828 |       0.9828 |       0.9828 |       0.9828 |xxxxxxxxxxxxx |xxxxxxxxxxxxx |xxxxxxxxxxxxx |       0.9828 |       0.9828 |       0.9828 |       0.9828 |

Command list: 
	sslittle-na-sstrix-gcc -Wall -O3 -funroll-loops -finline-functions  -DRANDOM_SIZE=4096 -DOFFSET=5 -DSORT=shakersort sorts/shakersort1997785176.c simpleMain.c -o shakersort1472805529
	sim-cache -cache:dl1 dl1:256:32:1:l -cache:dl2 dl2:131072:32:1:l -cache:il1 il1:256:32:1:l -cache:il2 dl2 shakersort1472805529
	sim-cache -cache:dl1 dl1:256:32:1:l -cache:dl2 dl2:65536:32:1:l -cache:il1 il1:256:32:1:l -cache:il2 dl2 shakersort1472805529
	sim-cache -cache:dl1 dl1:1:32:256:l -cache:dl2 dl2:1:32:131072:l -cache:il1 il1:1:32:256:l -cache:il2 dl2 shakersort1472805529
	sim-cache -cache:dl1 dl1:1:32:256:l -cache:dl2 dl2:1:32:65536:l -cache:il1 il1:1:32:256:l -cache:il2 dl2 shakersort1472805529
	sim-bpred -bpred bimod -bpred:bimod 512 shakersort1472805529
	sim-bpred -bpred bimod -bpred:bimod 1024 shakersort1472805529
	sim-bpred -bpred bimod -bpred:bimod 2048 shakersort1472805529
	sim-bpred -bpred 2lev -bpred:2lev 1 512 10 1 shakersort1472805529
	sim-bpred -bpred 2lev -bpred:2lev 1 1024 10 1 shakersort1472805529
	sim-bpred -bpred 2lev -bpred:2lev 1 2048 10 1 shakersort1472805529
	sim-bpred -bpred 2lev -bpred:2lev 1 4096 10 1 shakersort1472805529
	sslittle-na-sstrix-gcc -Wall -O3 -funroll-loops -finline-functions  -DRANDOM_SIZE=8192 -DOFFSET=5 -DSORT=shakersort sorts/shakersort1997785176.c simpleMain.c -o shakersort1472805529
	sim-cache -cache:dl1 dl1:256:32:1:l -cache:dl2 dl2:131072:32:1:l -cache:il1 il1:256:32:1:l -cache:il2 dl2 shakersort1472805529
	sim-cache -cache:dl1 dl1:256:32:1:l -cache:dl2 dl2:65536:32:1:l -cache:il1 il1:256:32:1:l -cache:il2 dl2 shakersort1472805529
	sim-cache -cache:dl1 dl1:1:32:256:l -cache:dl2 dl2:1:32:131072:l -cache:il1 il1:1:32:256:l -cache:il2 dl2 shakersort1472805529
	sim-cache -cache:dl1 dl1:1:32:256:l -cache:dl2 dl2:1:32:65536:l -cache:il1 il1:1:32:256:l -cache:il2 dl2 shakersort1472805529
	sim-bpred -bpred bimod -bpred:bimod 512 shakersort1472805529
	sim-bpred -bpred bimod -bpred:bimod 1024 shakersort1472805529
	sim-bpred -bpred bimod -bpred:bimod 2048 shakersort1472805529
	sim-bpred -bpred 2lev -bpred:2lev 1 512 10 1 shakersort1472805529
	sim-bpred -bpred 2lev -bpred:2lev 1 1024 10 1 shakersort1472805529
	sim-bpred -bpred 2lev -bpred:2lev 1 2048 10 1 shakersort1472805529
	sim-bpred -bpred 2lev -bpred:2lev 1 4096 10 1 shakersort1472805529
	sslittle-na-sstrix-gcc -Wall -O3 -funroll-loops -finline-functions  -DRANDOM_SIZE=16384 -DOFFSET=5 -DSORT=shakersort sorts/shakersort1997785176.c simpleMain.c -o shakersort1472805529
	sim-cache -cache:dl1 dl1:256:32:1:l -cache:dl2 dl2:131072:32:1:l -cache:il1 il1:256:32:1:l -cache:il2 dl2 shakersort1472805529
	sim-cache -cache:dl1 dl1:256:32:1:l -cache:dl2 dl2:65536:32:1:l -cache:il1 il1:256:32:1:l -cache:il2 dl2 shakersort1472805529
	sim-cache -cache:dl1 dl1:1:32:256:l -cache:dl2 dl2:1:32:131072:l -cache:il1 il1:1:32:256:l -cache:il2 dl2 shakersort1472805529
	sim-cache -cache:dl1 dl1:1:32:256:l -cache:dl2 dl2:1:32:65536:l -cache:il1 il1:1:32:256:l -cache:il2 dl2 shakersort1472805529
	sim-bpred -bpred bimod -bpred:bimod 512 shakersort1472805529
	sim-bpred -bpred bimod -bpred:bimod 1024 shakersort1472805529
	sim-bpred -bpred bimod -bpred:bimod 2048 shakersort1472805529
	sim-bpred -bpred 2lev -bpred:2lev 1 512 10 1 shakersort1472805529
	sim-bpred -bpred 2lev -bpred:2lev 1 1024 10 1 shakersort1472805529
	sim-bpred -bpred 2lev -bpred:2lev 1 2048 10 1 shakersort1472805529
	sim-bpred -bpred 2lev -bpred:2lev 1 4096 10 1 shakersort1472805529
	sslittle-na-sstrix-gcc -Wall -O3 -funroll-loops -finline-functions  -DRANDOM_SIZE=32768 -DOFFSET=5 -DSORT=shakersort sorts/shakersort1997785176.c simpleMain.c -o shakersort1472805529
	sim-cache -cache:dl1 dl1:256:32:1:l -cache:dl2 dl2:131072:32:1:l -cache:il1 il1:256:32:1:l -cache:il2 dl2 shakersort1472805529
	sim-cache -cache:dl1 dl1:256:32:1:l -cache:dl2 dl2:65536:32:1:l -cache:il1 il1:256:32:1:l -cache:il2 dl2 shakersort1472805529
	sim-cache -cache:dl1 dl1:1:32:256:l -cache:dl2 dl2:1:32:131072:l -cache:il1 il1:1:32:256:l -cache:il2 dl2 shakersort1472805529
	sim-cache -cache:dl1 dl1:1:32:256:l -cache:dl2 dl2:1:32:65536:l -cache:il1 il1:1:32:256:l -cache:il2 dl2 shakersort1472805529
	sim-bpred -bpred bimod -bpred:bimod 512 shakersort1472805529
	sim-bpred -bpred bimod -bpred:bimod 1024 shakersort1472805529
	sim-bpred -bpred bimod -bpred:bimod 2048 shakersort1472805529
	sim-bpred -bpred 2lev -bpred:2lev 1 512 10 1 shakersort1472805529
	sim-bpred -bpred 2lev -bpred:2lev 1 1024 10 1 shakersort1472805529
	sim-bpred -bpred 2lev -bpred:2lev 1 2048 10 1 shakersort1472805529
	sim-bpred -bpred 2lev -bpred:2lev 1 4096 10 1 shakersort1472805529
	sslittle-na-sstrix-gcc -Wall -O3 -funroll-loops -finline-functions  -DRANDOM_SIZE=65536 -DOFFSET=5 -DSORT=shakersort sorts/shakersort1997785176.c simpleMain.c -o shakersort1472805529
	sim-cache -cache:dl1 dl1:256:32:1:l -cache:dl2 dl2:131072:32:1:l -cache:il1 il1:256:32:1:l -cache:il2 dl2 shakersort1472805529
	sim-cache -cache:dl1 dl1:256:32:1:l -cache:dl2 dl2:65536:32:1:l -cache:il1 il1:256:32:1:l -cache:il2 dl2 shakersort1472805529
	sim-cache -cache:dl1 dl1:1:32:256:l -cache:dl2 dl2:1:32:131072:l -cache:il1 il1:1:32:256:l -cache:il2 dl2 shakersort1472805529
	sim-cache -cache:dl1 dl1:1:32:256:l -cache:dl2 dl2:1:32:65536:l -cache:il1 il1:1:32:256:l -cache:il2 dl2 shakersort1472805529
	sim-bpred -bpred bimod -bpred:bimod 512 shakersort1472805529
	sim-bpred -bpred bimod -bpred:bimod 1024 shakersort1472805529
	sim-bpred -bpred bimod -bpred:bimod 2048 shakersort1472805529
	sim-bpred -bpred 2lev -bpred:2lev 1 512 10 1 shakersort1472805529
	sim-bpred -bpred 2lev -bpred:2lev 1 1024 10 1 shakersort1472805529
	sim-bpred -bpred 2lev -bpred:2lev 1 2048 10 1 shakersort1472805529
	sim-bpred -bpred 2lev -bpred:2lev 1 4096 10 1 shakersort1472805529
