Wed Jul  6 04:00:10 2005
Run as: "./do_simple -c random.org3 -o 3 -M 65536 on2_shakersort"
-------------------------------------------------------------------------------------------------
sim-cache                                     4096 |         4096 |         4096 |         4096 |         8192 |         8192 |         8192 |         8192 |        16384 |        16384 |        16384 |        16384 |        32768 |        32768 |        32768 |        32768 |        65536 |        65536 |        65536 |        65536 |
-cache:dl1 dl1:256:32:1:l -cache:dl2 dl2:131072:32:1:l -cache:il1 il1:256:32:1:l -cache:il2 dl2
-cache:dl1 dl1:256:32:1:l -cache:dl2 dl2:65536:32:1:l -cache:il1 il1:256:32:1:l -cache:il2 dl2
-cache:dl1 dl1:1:32:256:l -cache:dl2 dl2:1:32:131072:l -cache:il1 il1:1:32:256:l -cache:il2 dl2
-cache:dl1 dl1:1:32:256:l -cache:dl2 dl2:1:32:65536:l -cache:il1 il1:1:32:256:l -cache:il2 dl2
-------------------------------------------------------------------------------------------------
sim_num_insn                              46697388 |     46697388 |     46697388 |     46697388 |    186832938 |    186832938 |    186832938 |    186832938 |    745904626 |    745904626 |    745904626 |    745904626 |   2986839858 |   2986839858 |   2986839858 |   2986839858 |  11983941276 |  11983941276 |  11983941276 |  11983941276 |
sim_num_refs                              20915449 |     20915449 |     20915449 |     20915449 |     83762825 |     83762825 |     83762825 |     83762825 |    335053799 |    335053799 |    335053799 |    335053799 |   1341991241 |   1341991241 |   1341991241 |   1341991241 |   5384608891 |   5384608891 |   5384608891 |   5384608891 |
sim_elapsed_time                                13 |           14 |           19 |           16 |           54 |           56 |           62 |           57 |          244 |          245 |          229 |          218 |         1040 |         1015 |          879 |          868 |         4109 |         4111 |         3499 |         3464 |
sim_inst_rate                         3592106.7692 | 3335527.7143 | 2457757.2632 | 2918586.7500 | 3459869.2222 | 3336302.4643 | 3013434.4839 | 3277770.8421 | 3056986.1721 | 3044508.6776 | 3257225.4410 | 3421580.8532 | 2871961.4019 | 2942699.3675 | 3397997.5631 | 3441059.7442 | 2916510.4103 | 2915091.5291 | 3424961.7822 | 3459567.3430 |
il1.accesses                              46697388 |     46697388 |     46697388 |     46697388 |    186832938 |    186832938 |    186832938 |    186832938 |    745904626 |    745904626 |    745904626 |    745904626 |   2986839858 |   2986839858 |   2986839858 |   2986839858 |  11983941276 |  11983941276 |  11983941276 |  11983941276 |
il1.hits                                  46696989 |     46696989 |     46697050 |     46697050 |    186832536 |    186832536 |    186832598 |    186832598 |    745904233 |    745904233 |    745904290 |    745904290 |   2986839455 |   2986839455 |   2986839517 |   2986839517 |  11983940873 |  11983940873 |  11983940935 |  11983940935 |
il1.misses                                     399 |          399 |          338 |          338 |          402 |          402 |          340 |          340 |          393 |          393 |          336 |          336 |          403 |          403 |          341 |          341 |          403 |          403 |          341 |          341 |
il1.replacements                               209 |          209 |           82 |           82 |          212 |          212 |           84 |           84 |          207 |          207 |           80 |           80 |          212 |          212 |           85 |           85 |          212 |          212 |           85 |           85 |
il1.writebacks                                   0 |            0 |            0 |            0 |            0 |            0 |            0 |            0 |            0 |            0 |            0 |            0 |            0 |            0 |            0 |            0 |            0 |            0 |            0 |            0 |
il1.invalidations                                0 |            0 |            0 |            0 |            0 |            0 |            0 |            0 |            0 |            0 |            0 |            0 |            0 |            0 |            0 |            0 |            0 |            0 |            0 |            0 |
il1.miss_rate                               0.0000 |       0.0000 |       0.0000 |       0.0000 |       0.0000 |       0.0000 |       0.0000 |       0.0000 |       0.0000 |       0.0000 |       0.0000 |       0.0000 |       0.0000 |       0.0000 |       0.0000 |       0.0000 |       0.0000 |       0.0000 |       0.0000 |       0.0000 |
il1.repl_rate                               0.0000 |       0.0000 |       0.0000 |       0.0000 |       0.0000 |       0.0000 |       0.0000 |       0.0000 |       0.0000 |       0.0000 |       0.0000 |       0.0000 |       0.0000 |       0.0000 |       0.0000 |       0.0000 |       0.0000 |       0.0000 |       0.0000 |       0.0000 |
il1.wb_rate                                 0.0000 |       0.0000 |       0.0000 |       0.0000 |       0.0000 |       0.0000 |       0.0000 |       0.0000 |       0.0000 |       0.0000 |       0.0000 |       0.0000 |       0.0000 |       0.0000 |       0.0000 |       0.0000 |       0.0000 |       0.0000 |       0.0000 |       0.0000 |
il1.inv_rate                                0.0000 |       0.0000 |       0.0000 |       0.0000 |       0.0000 |       0.0000 |       0.0000 |       0.0000 |       0.0000 |       0.0000 |       0.0000 |       0.0000 |       0.0000 |       0.0000 |       0.0000 |       0.0000 |       0.0000 |       0.0000 |       0.0000 |       0.0000 |
dl1.accesses                              20931915 |     20931915 |     20931915 |     20931915 |     83795675 |     83795675 |     83795675 |     83795675 |    335119417 |    335119417 |    335119417 |    335119417 |   1342122395 |   1342122395 |   1342122395 |   1342122395 |   5384871117 |   5384871117 |   5384871117 |   5384871117 |
dl1.hits                                  20666630 |     20666630 |     20666630 |     20666630 |     81688091 |     81688091 |     81688091 |     81688091 |    324627073 |    324627073 |    324627073 |    324627073 |   1295934425 |   1295934425 |   1295934425 |   1295934425 |   5191223223 |   5191223223 |   5191223223 |   5191223223 |
dl1.misses                                  265285 |       265285 |       265285 |       265285 |      2107584 |      2107584 |      2107584 |      2107584 |     10492344 |     10492344 |     10492344 |     10492344 |     46187970 |     46187970 |     46187970 |     46187970 |    193647894 |    193647894 |    193647894 |    193647894 |
dl1.replacements                            265029 |       265029 |       265029 |       265029 |      2107328 |      2107328 |      2107328 |      2107328 |     10492088 |     10492088 |     10492088 |     10492088 |     46187714 |     46187714 |     46187714 |     46187714 |    193647638 |    193647638 |    193647638 |    193647638 |
dl1.writebacks                              235183 |       235183 |       235183 |       235183 |      1924379 |      1924379 |      1924379 |      1924379 |      9709363 |      9709363 |      9709363 |      9709363 |     42323089 |     42323089 |     42323089 |     42323089 |    175712583 |    175712583 |    175712583 |    175712583 |
dl1.invalidations                                0 |            0 |            0 |            0 |            0 |            0 |            0 |            0 |            0 |            0 |            0 |            0 |            0 |            0 |            0 |            0 |            0 |            0 |            0 |            0 |
dl1.miss_rate                               0.0127 |       0.0127 |       0.0127 |       0.0127 |       0.0252 |       0.0252 |       0.0252 |       0.0252 |       0.0313 |       0.0313 |       0.0313 |       0.0313 |       0.0344 |       0.0344 |       0.0344 |       0.0344 |       0.0360 |       0.0360 |       0.0360 |       0.0360 |
dl1.repl_rate                               0.0127 |       0.0127 |       0.0127 |       0.0127 |       0.0251 |       0.0251 |       0.0251 |       0.0251 |       0.0313 |       0.0313 |       0.0313 |       0.0313 |       0.0344 |       0.0344 |       0.0344 |       0.0344 |       0.0360 |       0.0360 |       0.0360 |       0.0360 |
dl1.wb_rate                                 0.0112 |       0.0112 |       0.0112 |       0.0112 |       0.0230 |       0.0230 |       0.0230 |       0.0230 |       0.0290 |       0.0290 |       0.0290 |       0.0290 |       0.0315 |       0.0315 |       0.0315 |       0.0315 |       0.0326 |       0.0326 |       0.0326 |       0.0326 |
dl1.inv_rate                                0.0000 |       0.0000 |       0.0000 |       0.0000 |       0.0000 |       0.0000 |       0.0000 |       0.0000 |       0.0000 |       0.0000 |       0.0000 |       0.0000 |       0.0000 |       0.0000 |       0.0000 |       0.0000 |       0.0000 |       0.0000 |       0.0000 |       0.0000 |
dl2.accesses                                500867 |       500867 |       500806 |       500806 |      4032365 |      4032365 |      4032303 |      4032303 |     20202100 |     20202100 |     20202043 |     20202043 |     88511462 |     88511462 |     88511400 |     88511400 |    369360880 |    369360880 |    369360818 |    369360818 |
dl2.hits                                    499604 |       499604 |       499545 |       499545 |      4030587 |      4030587 |      4030528 |      4030528 |     20199303 |     20199303 |     20199250 |     20199250 |     88506610 |     88506610 |     88506552 |     88506552 |    369351932 |    369351932 |    369351874 |    369351874 |
dl2.misses                                    1263 |         1263 |         1261 |         1261 |         1778 |         1778 |         1775 |         1775 |         2797 |         2797 |         2793 |         2793 |         4852 |         4852 |         4848 |         4848 |         8948 |         8948 |         8944 |         8944 |
dl2.replacements                                60 |           60 |            0 |            0 |           61 |           61 |            0 |            0 |           63 |           63 |            0 |            0 |           62 |           62 |            0 |            0 |           62 |           62 |            0 |            0 |
dl2.writebacks                                   1 |            1 |            0 |            0 |            2 |            2 |            0 |            0 |            2 |            2 |            0 |            0 |            3 |            3 |            0 |            0 |            3 |            3 |            0 |            0 |
dl2.invalidations                                0 |            0 |            0 |            0 |            0 |            0 |            0 |            0 |            0 |            0 |            0 |            0 |            0 |            0 |            0 |            0 |            0 |            0 |            0 |            0 |
dl2.miss_rate                               0.0025 |       0.0025 |       0.0025 |       0.0025 |       0.0004 |       0.0004 |       0.0004 |       0.0004 |       0.0001 |       0.0001 |       0.0001 |       0.0001 |       0.0001 |       0.0001 |       0.0001 |       0.0001 |       0.0000 |       0.0000 |       0.0000 |       0.0000 |
dl2.repl_rate                               0.0001 |       0.0001 |       0.0000 |       0.0000 |       0.0000 |       0.0000 |       0.0000 |       0.0000 |       0.0000 |       0.0000 |       0.0000 |       0.0000 |       0.0000 |       0.0000 |       0.0000 |       0.0000 |       0.0000 |       0.0000 |       0.0000 |       0.0000 |
dl2.wb_rate                                 0.0000 |       0.0000 |       0.0000 |       0.0000 |       0.0000 |       0.0000 |       0.0000 |       0.0000 |       0.0000 |       0.0000 |       0.0000 |       0.0000 |       0.0000 |       0.0000 |       0.0000 |       0.0000 |       0.0000 |       0.0000 |       0.0000 |       0.0000 |
dl2.inv_rate                                0.0000 |       0.0000 |       0.0000 |       0.0000 |       0.0000 |       0.0000 |       0.0000 |       0.0000 |       0.0000 |       0.0000 |       0.0000 |       0.0000 |       0.0000 |       0.0000 |       0.0000 |       0.0000 |       0.0000 |       0.0000 |       0.0000 |       0.0000 |
itlb.accesses                             46697388 |     46697388 |     46697388 |     46697388 |    186832938 |    186832938 |    186832938 |    186832938 |    745904626 |    745904626 |    745904626 |    745904626 |   2986839858 |   2986839858 |   2986839858 |   2986839858 |  11983941276 |  11983941276 |  11983941276 |  11983941276 |
itlb.hits                                 46697379 |     46697379 |     46697379 |     46697379 |    186832929 |    186832929 |    186832929 |    186832929 |    745904617 |    745904617 |    745904617 |    745904617 |   2986839849 |   2986839849 |   2986839849 |   2986839849 |  11983941267 |  11983941267 |  11983941267 |  11983941267 |
itlb.misses                                      9 |            9 |            9 |            9 |            9 |            9 |            9 |            9 |            9 |            9 |            9 |            9 |            9 |            9 |            9 |            9 |            9 |            9 |            9 |            9 |
itlb.replacements                                0 |            0 |            0 |            0 |            0 |            0 |            0 |            0 |            0 |            0 |            0 |            0 |            0 |            0 |            0 |            0 |            0 |            0 |            0 |            0 |
itlb.writebacks                                  0 |            0 |            0 |            0 |            0 |            0 |            0 |            0 |            0 |            0 |            0 |            0 |            0 |            0 |            0 |            0 |            0 |            0 |            0 |            0 |
itlb.invalidations                               0 |            0 |            0 |            0 |            0 |            0 |            0 |            0 |            0 |            0 |            0 |            0 |            0 |            0 |            0 |            0 |            0 |            0 |            0 |            0 |
itlb.miss_rate                              0.0000 |       0.0000 |       0.0000 |       0.0000 |       0.0000 |       0.0000 |       0.0000 |       0.0000 |       0.0000 |       0.0000 |       0.0000 |       0.0000 |       0.0000 |       0.0000 |       0.0000 |       0.0000 |       0.0000 |       0.0000 |       0.0000 |       0.0000 |
itlb.repl_rate                              0.0000 |       0.0000 |       0.0000 |       0.0000 |       0.0000 |       0.0000 |       0.0000 |       0.0000 |       0.0000 |       0.0000 |       0.0000 |       0.0000 |       0.0000 |       0.0000 |       0.0000 |       0.0000 |       0.0000 |       0.0000 |       0.0000 |       0.0000 |
itlb.wb_rate                                0.0000 |       0.0000 |       0.0000 |       0.0000 |       0.0000 |       0.0000 |       0.0000 |       0.0000 |       0.0000 |       0.0000 |       0.0000 |       0.0000 |       0.0000 |       0.0000 |       0.0000 |       0.0000 |       0.0000 |       0.0000 |       0.0000 |       0.0000 |
itlb.inv_rate                               0.0000 |       0.0000 |       0.0000 |       0.0000 |       0.0000 |       0.0000 |       0.0000 |       0.0000 |       0.0000 |       0.0000 |       0.0000 |       0.0000 |       0.0000 |       0.0000 |       0.0000 |       0.0000 |       0.0000 |       0.0000 |       0.0000 |       0.0000 |
dtlb.accesses                             20931915 |     20931915 |     20931915 |     20931915 |     83795675 |     83795675 |     83795675 |     83795675 |    335119417 |    335119417 |    335119417 |    335119417 |   1342122395 |   1342122395 |   1342122395 |   1342122395 |   5384871117 |   5384871117 |   5384871117 |   5384871117 |
dtlb.hits                                 20931904 |     20931904 |     20931904 |     20931904 |     83795660 |     83795660 |     83795660 |     83795660 |    335119394 |    335119394 |    335119394 |    335119394 |   1342122356 |   1342122356 |   1342122356 |   1342122356 |   5384871046 |   5384871046 |   5384871046 |   5384871046 |
dtlb.misses                                     11 |           11 |           11 |           11 |           15 |           15 |           15 |           15 |           23 |           23 |           23 |           23 |           39 |           39 |           39 |           39 |           71 |           71 |           71 |           71 |
dtlb.replacements                                0 |            0 |            0 |            0 |            0 |            0 |            0 |            0 |            0 |            0 |            0 |            0 |            0 |            0 |            0 |            0 |            0 |            0 |            0 |            0 |
dtlb.writebacks                                  0 |            0 |            0 |            0 |            0 |            0 |            0 |            0 |            0 |            0 |            0 |            0 |            0 |            0 |            0 |            0 |            0 |            0 |            0 |            0 |
dtlb.invalidations                               0 |            0 |            0 |            0 |            0 |            0 |            0 |            0 |            0 |            0 |            0 |            0 |            0 |            0 |            0 |            0 |            0 |            0 |            0 |            0 |
dtlb.miss_rate                              0.0000 |       0.0000 |       0.0000 |       0.0000 |       0.0000 |       0.0000 |       0.0000 |       0.0000 |       0.0000 |       0.0000 |       0.0000 |       0.0000 |       0.0000 |       0.0000 |       0.0000 |       0.0000 |       0.0000 |       0.0000 |       0.0000 |       0.0000 |
dtlb.repl_rate                              0.0000 |       0.0000 |       0.0000 |       0.0000 |       0.0000 |       0.0000 |       0.0000 |       0.0000 |       0.0000 |       0.0000 |       0.0000 |       0.0000 |       0.0000 |       0.0000 |       0.0000 |       0.0000 |       0.0000 |       0.0000 |       0.0000 |       0.0000 |
dtlb.wb_rate                                0.0000 |       0.0000 |       0.0000 |       0.0000 |       0.0000 |       0.0000 |       0.0000 |       0.0000 |       0.0000 |       0.0000 |       0.0000 |       0.0000 |       0.0000 |       0.0000 |       0.0000 |       0.0000 |       0.0000 |       0.0000 |       0.0000 |       0.0000 |
dtlb.inv_rate                               0.0000 |       0.0000 |       0.0000 |       0.0000 |       0.0000 |       0.0000 |       0.0000 |       0.0000 |       0.0000 |       0.0000 |       0.0000 |       0.0000 |       0.0000 |       0.0000 |       0.0000 |       0.0000 |       0.0000 |       0.0000 |       0.0000 |       0.0000 |
ld_text_base                            0x00400000 |   0x00400000 |   0x00400000 |   0x00400000 |   0x00400000 |   0x00400000 |   0x00400000 |   0x00400000 |   0x00400000 |   0x00400000 |   0x00400000 |   0x00400000 |   0x00400000 |   0x00400000 |   0x00400000 |   0x00400000 |   0x00400000 |   0x00400000 |   0x00400000 |   0x00400000 |
ld_text_size                                 71952 |        71952 |        71952 |        71952 |        71984 |        71984 |        71984 |        71984 |        72000 |        72000 |        72000 |        72000 |        72016 |        72016 |        72016 |        72016 |        72016 |        72016 |        72016 |        72016 |
ld_data_base                            0x10000000 |   0x10000000 |   0x10000000 |   0x10000000 |   0x10000000 |   0x10000000 |   0x10000000 |   0x10000000 |   0x10000000 |   0x10000000 |   0x10000000 |   0x10000000 |   0x10000000 |   0x10000000 |   0x10000000 |   0x10000000 |   0x10000000 |   0x10000000 |   0x10000000 |   0x10000000 |
ld_data_size                                  8192 |         8192 |         8192 |         8192 |         8192 |         8192 |         8192 |         8192 |         8192 |         8192 |         8192 |         8192 |         8192 |         8192 |         8192 |         8192 |         8192 |         8192 |         8192 |         8192 |
ld_stack_base                           0x7fffc000 |   0x7fffc000 |   0x7fffc000 |   0x7fffc000 |   0x7fffc000 |   0x7fffc000 |   0x7fffc000 |   0x7fffc000 |   0x7fffc000 |   0x7fffc000 |   0x7fffc000 |   0x7fffc000 |   0x7fffc000 |   0x7fffc000 |   0x7fffc000 |   0x7fffc000 |   0x7fffc000 |   0x7fffc000 |   0x7fffc000 |   0x7fffc000 |
ld_stack_size                                16384 |        16384 |        16384 |        16384 |        16384 |        16384 |        16384 |        16384 |        16384 |        16384 |        16384 |        16384 |        16384 |        16384 |        16384 |        16384 |        16384 |        16384 |        16384 |        16384 |
ld_prog_entry                           0x00400140 |   0x00400140 |   0x00400140 |   0x00400140 |   0x00400140 |   0x00400140 |   0x00400140 |   0x00400140 |   0x00400140 |   0x00400140 |   0x00400140 |   0x00400140 |   0x00400140 |   0x00400140 |   0x00400140 |   0x00400140 |   0x00400140 |   0x00400140 |   0x00400140 |   0x00400140 |
ld_environ_base                         0x7fff8000 |   0x7fff8000 |   0x7fff8000 |   0x7fff8000 |   0x7fff8000 |   0x7fff8000 |   0x7fff8000 |   0x7fff8000 |   0x7fff8000 |   0x7fff8000 |   0x7fff8000 |   0x7fff8000 |   0x7fff8000 |   0x7fff8000 |   0x7fff8000 |   0x7fff8000 |   0x7fff8000 |   0x7fff8000 |   0x7fff8000 |   0x7fff8000 |
ld_target_big_endian                             0 |            0 |            0 |            0 |            0 |            0 |            0 |            0 |            0 |            0 |            0 |            0 |            0 |            0 |            0 |            0 |            0 |            0 |            0 |            0 |
mem.page_count                                  29 |           29 |           29 |           29 |           33 |           33 |           33 |           33 |           41 |           41 |           41 |           41 |           57 |           57 |           57 |           57 |           89 |           89 |           89 |           89 |
mem.page_mem                                  116k |         116k |         116k |         116k |         132k |         132k |         132k |         132k |         164k |         164k |         164k |         164k |         228k |         228k |         228k |         228k |         356k |         356k |         356k |         356k |
mem.ptab_misses                                 29 |           29 |           29 |           29 |           33 |           33 |           33 |           33 |           41 |           41 |           41 |           41 |           57 |           57 |           57 |           57 |           89 |           89 |           89 |           89 |
mem.ptab_accesses                        229099684 |    229099684 |    229099684 |    229099684 |    915369596 |    915369596 |    915369596 |    915369596 |   3654303928 |   3654303928 |   3654303928 |   3654303928 |  14632050908 |  14632050908 |  14632050908 |  14632050908 |  58705954024 |  58705954024 |  58705954024 |  58705954024 |
mem.ptab_miss_rate                          0.0000 |       0.0000 |       0.0000 |       0.0000 |       0.0000 |       0.0000 |       0.0000 |       0.0000 |       0.0000 |       0.0000 |       0.0000 |       0.0000 |       0.0000 |       0.0000 |       0.0000 |       0.0000 |       0.0000 |       0.0000 |       0.0000 |       0.0000 |
-------------------------------------------------------------------------------------------------
sim-bpred                                     4096 |         4096 |         4096 |         4096 |         4096 |         4096 |         4096 |         8192 |         8192 |         8192 |         8192 |         8192 |         8192 |         8192 |        16384 |        16384 |        16384 |        16384 |        16384 |        16384 |        16384 |        32768 |        32768 |        32768 |        32768 |        32768 |        32768 |        32768 |        65536 |        65536 |        65536 |        65536 |        65536 |        65536 |        65536 |
-bpred bimod -bpred:bimod 512
-bpred bimod -bpred:bimod 1024
-bpred bimod -bpred:bimod 2048
-bpred 2lev -bpred:2lev 1 512 10 1
-bpred 2lev -bpred:2lev 1 1024 10 1
-bpred 2lev -bpred:2lev 1 2048 10 1
-bpred 2lev -bpred:2lev 1 4096 10 1
-------------------------------------------------------------------------------------------------
sim_num_insn                              46697388 |     46697388 |     46697388 |     46697388 |     46697388 |     46697388 |     46697388 |    186832938 |    186832938 |    186832938 |    186832938 |    186832938 |    186832938 |    186832938 |    745904626 |    745904626 |    745904626 |    745904626 |    745904626 |    745904626 |    745904626 |   2986839858 |   2986839858 |   2986839858 |   2986839858 |   2986839858 |   2986839858 |   2986839858 |  11983941276 |  11983941276 |  11983941276 |  11983941276 |  11983941276 |  11983941276 |  11983941276 |
sim_num_refs                              20915449 |     20915449 |     20915449 |     20915449 |     20915449 |     20915449 |     20915449 |     83762825 |     83762825 |     83762825 |     83762825 |     83762825 |     83762825 |     83762825 |    335053799 |    335053799 |    335053799 |    335053799 |    335053799 |    335053799 |    335053799 |   1341991241 |   1341991241 |   1341991241 |   1341991241 |   1341991241 |   1341991241 |   1341991241 |   5384608891 |   5384608891 |   5384608891 |   5384608891 |   5384608891 |   5384608891 |   5384608891 |
sim_elapsed_time                                 6 |            5 |            6 |            5 |            6 |            5 |            8 |           22 |           22 |           21 |           22 |           22 |           22 |           23 |           88 |           87 |           86 |           88 |           90 |           88 |           91 |          349 |          350 |          349 |          353 |          355 |          356 |          368 |         1403 |         1406 |         1405 |         1421 |         1426 |         1424 |         1473 |
sim_inst_rate                         7782898.0000 | 9339477.6000 | 7782898.0000 | 9339477.6000 | 7782898.0000 | 9339477.6000 | 5837173.5000 | 8492406.2727 | 8492406.2727 | 8896806.5714 | 8492406.2727 | 8492406.2727 | 8492406.2727 | 8123171.2174 | 8476188.9318 | 8573616.3908 | 8673309.6047 | 8476188.9318 | 8287829.1778 | 8476188.9318 | 8196754.1319 | 8558280.3954 | 8533828.1657 | 8558280.3954 | 8461302.7139 | 8413633.4028 | 8389999.6011 | 8116412.6576 | 8541654.5089 | 8523429.0725 | 8529495.5701 | 8433456.2111 | 8403885.8878 | 8415689.0983 | 8135737.4582 |
sim_num_branches                           7898832 |      7898832 |      7898832 |      7898832 |      7898832 |      7898832 |      7898832 |     31566436 |     31566436 |     31566436 |     31566436 |     31566436 |     31566436 |     31566436 |    125801144 |    125801144 |    125801144 |    125801144 |    125801144 |    125801144 |    125801144 |    503710341 |    503710341 |    503710341 |    503710341 |    503710341 |    503710341 |    503710341 |   2020506548 |   2020506548 |   2020506548 |   2020506548 |   2020506548 |   2020506548 |   2020506548 |
sim_IPB                                     5.9119 |       5.9119 |       5.9119 |       5.9119 |       5.9119 |       5.9119 |       5.9119 |       5.9187 |       5.9187 |       5.9187 |       5.9187 |       5.9187 |       5.9187 |       5.9187 |       5.9292 |       5.9292 |       5.9292 |       5.9292 |       5.9292 |       5.9292 |       5.9292 |       5.9297 |       5.9297 |       5.9297 |       5.9297 |       5.9297 |       5.9297 |       5.9297 |       5.9312 |       5.9312 |       5.9312 |       5.9312 |       5.9312 |       5.9312 |       5.9312 |
bpred_bimod.lookups                        7898832 |      7898832 |      7898832 |xxxxxxxxxxxxx |xxxxxxxxxxxxx |xxxxxxxxxxxxx |xxxxxxxxxxxxx |     31566436 |     31566436 |     31566436 |xxxxxxxxxxxxx |xxxxxxxxxxxxx |xxxxxxxxxxxxx |xxxxxxxxxxxxx |    125801144 |    125801144 |    125801144 |xxxxxxxxxxxxx |xxxxxxxxxxxxx |xxxxxxxxxxxxx |xxxxxxxxxxxxx |    503710341 |    503710341 |    503710341 |xxxxxxxxxxxxx |xxxxxxxxxxxxx |xxxxxxxxxxxxx |xxxxxxxxxxxxx |   2020506548 |   2020506548 |   2020506548 |
bpred_bimod.updates                        7898832 |      7898832 |      7898832 |xxxxxxxxxxxxx |xxxxxxxxxxxxx |xxxxxxxxxxxxx |xxxxxxxxxxxxx |     31566436 |     31566436 |     31566436 |xxxxxxxxxxxxx |xxxxxxxxxxxxx |xxxxxxxxxxxxx |xxxxxxxxxxxxx |    125801144 |    125801144 |    125801144 |xxxxxxxxxxxxx |xxxxxxxxxxxxx |xxxxxxxxxxxxx |xxxxxxxxxxxxx |    503710341 |    503710341 |    503710341 |xxxxxxxxxxxxx |xxxxxxxxxxxxx |xxxxxxxxxxxxx |xxxxxxxxxxxxx |   2020506548 |   2020506548 |   2020506548 |
bpred_bimod.addr_hits                      6506761 |      6506764 |      6506766 |xxxxxxxxxxxxx |xxxxxxxxxxxxx |xxxxxxxxxxxxx |xxxxxxxxxxxxx |     25900632 |     25900635 |     25900638 |xxxxxxxxxxxxx |xxxxxxxxxxxxx |xxxxxxxxxxxxx |xxxxxxxxxxxxx |    103356351 |    103356353 |    103356353 |xxxxxxxxxxxxx |xxxxxxxxxxxxx |xxxxxxxxxxxxx |xxxxxxxxxxxxx |    414816764 |    414816766 |    414816767 |xxxxxxxxxxxxx |xxxxxxxxxxxxx |xxxxxxxxxxxxx |xxxxxxxxxxxxx |   1660964470 |   1660964472 |   1660964473 |
bpred_bimod.dir_hits                       6506859 |      6506861 |      6506861 |xxxxxxxxxxxxx |xxxxxxxxxxxxx |xxxxxxxxxxxxx |xxxxxxxxxxxxx |     25900731 |     25900731 |     25900733 |xxxxxxxxxxxxx |xxxxxxxxxxxxx |xxxxxxxxxxxxx |xxxxxxxxxxxxx |    103356449 |    103356449 |    103356447 |xxxxxxxxxxxxx |xxxxxxxxxxxxx |xxxxxxxxxxxxx |xxxxxxxxxxxxx |    414816862 |    414816863 |    414816861 |xxxxxxxxxxxxx |xxxxxxxxxxxxx |xxxxxxxxxxxxx |xxxxxxxxxxxxx |   1660964568 |   1660964569 |   1660964567 |
bpred_bimod.misses                         1391973 |      1391971 |      1391971 |xxxxxxxxxxxxx |xxxxxxxxxxxxx |xxxxxxxxxxxxx |xxxxxxxxxxxxx |      5665705 |      5665705 |      5665703 |xxxxxxxxxxxxx |xxxxxxxxxxxxx |xxxxxxxxxxxxx |xxxxxxxxxxxxx |     22444695 |     22444695 |     22444697 |xxxxxxxxxxxxx |xxxxxxxxxxxxx |xxxxxxxxxxxxx |xxxxxxxxxxxxx |     88893479 |     88893478 |     88893480 |xxxxxxxxxxxxx |xxxxxxxxxxxxx |xxxxxxxxxxxxx |xxxxxxxxxxxxx |    359541980 |    359541979 |    359541981 |
bpred_bimod.jr_hits                             57 |           57 |           57 |xxxxxxxxxxxxx |xxxxxxxxxxxxx |xxxxxxxxxxxxx |xxxxxxxxxxxxx |           57 |           57 |           57 |xxxxxxxxxxxxx |xxxxxxxxxxxxx |xxxxxxxxxxxxx |xxxxxxxxxxxxx |           57 |           57 |           57 |xxxxxxxxxxxxx |xxxxxxxxxxxxx |xxxxxxxxxxxxx |xxxxxxxxxxxxx |           57 |           57 |           57 |xxxxxxxxxxxxx |xxxxxxxxxxxxx |xxxxxxxxxxxxx |xxxxxxxxxxxxx |           57 |           57 |           57 |
bpred_bimod.jr_seen                             58 |           58 |           58 |xxxxxxxxxxxxx |xxxxxxxxxxxxx |xxxxxxxxxxxxx |xxxxxxxxxxxxx |           58 |           58 |           58 |xxxxxxxxxxxxx |xxxxxxxxxxxxx |xxxxxxxxxxxxx |xxxxxxxxxxxxx |           58 |           58 |           58 |xxxxxxxxxxxxx |xxxxxxxxxxxxx |xxxxxxxxxxxxx |xxxxxxxxxxxxx |           58 |           58 |           58 |xxxxxxxxxxxxx |xxxxxxxxxxxxx |xxxxxxxxxxxxx |xxxxxxxxxxxxx |           58 |           58 |           58 |
bpred_bimod.jr_non_ras_hits.PP                   0 |            0 |            0 |xxxxxxxxxxxxx |xxxxxxxxxxxxx |xxxxxxxxxxxxx |xxxxxxxxxxxxx |            0 |            0 |            0 |xxxxxxxxxxxxx |xxxxxxxxxxxxx |xxxxxxxxxxxxx |xxxxxxxxxxxxx |            0 |            0 |            0 |xxxxxxxxxxxxx |xxxxxxxxxxxxx |xxxxxxxxxxxxx |xxxxxxxxxxxxx |            0 |            0 |            0 |xxxxxxxxxxxxx |xxxxxxxxxxxxx |xxxxxxxxxxxxx |xxxxxxxxxxxxx |            0 |            0 |            0 |
bpred_bimod.jr_non_ras_seen.PP                   0 |            0 |            0 |xxxxxxxxxxxxx |xxxxxxxxxxxxx |xxxxxxxxxxxxx |xxxxxxxxxxxxx |            0 |            0 |            0 |xxxxxxxxxxxxx |xxxxxxxxxxxxx |xxxxxxxxxxxxx |xxxxxxxxxxxxx |            0 |            0 |            0 |xxxxxxxxxxxxx |xxxxxxxxxxxxx |xxxxxxxxxxxxx |xxxxxxxxxxxxx |            0 |            0 |            0 |xxxxxxxxxxxxx |xxxxxxxxxxxxx |xxxxxxxxxxxxx |xxxxxxxxxxxxx |            0 |            0 |            0 |
bpred_bimod.bpred_addr_rate                 0.8238 |       0.8238 |       0.8238 |xxxxxxxxxxxxx |xxxxxxxxxxxxx |xxxxxxxxxxxxx |xxxxxxxxxxxxx |       0.8205 |       0.8205 |       0.8205 |xxxxxxxxxxxxx |xxxxxxxxxxxxx |xxxxxxxxxxxxx |xxxxxxxxxxxxx |       0.8216 |       0.8216 |       0.8216 |xxxxxxxxxxxxx |xxxxxxxxxxxxx |xxxxxxxxxxxxx |xxxxxxxxxxxxx |       0.8235 |       0.8235 |       0.8235 |xxxxxxxxxxxxx |xxxxxxxxxxxxx |xxxxxxxxxxxxx |xxxxxxxxxxxxx |       0.8221 |       0.8221 |       0.8221 |
bpred_bimod.bpred_dir_rate                  0.8238 |       0.8238 |       0.8238 |xxxxxxxxxxxxx |xxxxxxxxxxxxx |xxxxxxxxxxxxx |xxxxxxxxxxxxx |       0.8205 |       0.8205 |       0.8205 |xxxxxxxxxxxxx |xxxxxxxxxxxxx |xxxxxxxxxxxxx |xxxxxxxxxxxxx |       0.8216 |       0.8216 |       0.8216 |xxxxxxxxxxxxx |xxxxxxxxxxxxx |xxxxxxxxxxxxx |xxxxxxxxxxxxx |       0.8235 |       0.8235 |       0.8235 |xxxxxxxxxxxxx |xxxxxxxxxxxxx |xxxxxxxxxxxxx |xxxxxxxxxxxxx |       0.8221 |       0.8221 |       0.8221 |
bpred_bimod.bpred_jr_rate                   0.9828 |       0.9828 |       0.9828 |xxxxxxxxxxxxx |xxxxxxxxxxxxx |xxxxxxxxxxxxx |xxxxxxxxxxxxx |       0.9828 |       0.9828 |       0.9828 |xxxxxxxxxxxxx |xxxxxxxxxxxxx |xxxxxxxxxxxxx |xxxxxxxxxxxxx |       0.9828 |       0.9828 |       0.9828 |xxxxxxxxxxxxx |xxxxxxxxxxxxx |xxxxxxxxxxxxx |xxxxxxxxxxxxx |       0.9828 |       0.9828 |       0.9828 |xxxxxxxxxxxxx |xxxxxxxxxxxxx |xxxxxxxxxxxxx |xxxxxxxxxxxxx |       0.9828 |       0.9828 |       0.9828 |
bpred_bimod.bpred_jr_non_ras_rate.PP       <error: |      <error: |      <error: |xxxxxxxxxxxxx |xxxxxxxxxxxxx |xxxxxxxxxxxxx |xxxxxxxxxxxxx |      <error: |      <error: |      <error: |xxxxxxxxxxxxx |xxxxxxxxxxxxx |xxxxxxxxxxxxx |xxxxxxxxxxxxx |      <error: |      <error: |      <error: |xxxxxxxxxxxxx |xxxxxxxxxxxxx |xxxxxxxxxxxxx |xxxxxxxxxxxxx |      <error: |      <error: |      <error: |xxxxxxxxxxxxx |xxxxxxxxxxxxx |xxxxxxxxxxxxx |xxxxxxxxxxxxx |      <error: |      <error: |      <error: |
bpred_bimod.retstack_pushes                     60 |           60 |           60 |xxxxxxxxxxxxx |xxxxxxxxxxxxx |xxxxxxxxxxxxx |xxxxxxxxxxxxx |           60 |           60 |           60 |xxxxxxxxxxxxx |xxxxxxxxxxxxx |xxxxxxxxxxxxx |xxxxxxxxxxxxx |           60 |           60 |           60 |xxxxxxxxxxxxx |xxxxxxxxxxxxx |xxxxxxxxxxxxx |xxxxxxxxxxxxx |           60 |           60 |           60 |xxxxxxxxxxxxx |xxxxxxxxxxxxx |xxxxxxxxxxxxx |xxxxxxxxxxxxx |           60 |           60 |           60 |
bpred_bimod.retstack_pops                       58 |           58 |           58 |xxxxxxxxxxxxx |xxxxxxxxxxxxx |xxxxxxxxxxxxx |xxxxxxxxxxxxx |           58 |           58 |           58 |xxxxxxxxxxxxx |xxxxxxxxxxxxx |xxxxxxxxxxxxx |xxxxxxxxxxxxx |           58 |           58 |           58 |xxxxxxxxxxxxx |xxxxxxxxxxxxx |xxxxxxxxxxxxx |xxxxxxxxxxxxx |           58 |           58 |           58 |xxxxxxxxxxxxx |xxxxxxxxxxxxx |xxxxxxxxxxxxx |xxxxxxxxxxxxx |           58 |           58 |           58 |
bpred_bimod.used_ras.PP                         58 |           58 |           58 |xxxxxxxxxxxxx |xxxxxxxxxxxxx |xxxxxxxxxxxxx |xxxxxxxxxxxxx |           58 |           58 |           58 |xxxxxxxxxxxxx |xxxxxxxxxxxxx |xxxxxxxxxxxxx |xxxxxxxxxxxxx |           58 |           58 |           58 |xxxxxxxxxxxxx |xxxxxxxxxxxxx |xxxxxxxxxxxxx |xxxxxxxxxxxxx |           58 |           58 |           58 |xxxxxxxxxxxxx |xxxxxxxxxxxxx |xxxxxxxxxxxxx |xxxxxxxxxxxxx |           58 |           58 |           58 |
bpred_bimod.ras_hits.PP                         57 |           57 |           57 |xxxxxxxxxxxxx |xxxxxxxxxxxxx |xxxxxxxxxxxxx |xxxxxxxxxxxxx |           57 |           57 |           57 |xxxxxxxxxxxxx |xxxxxxxxxxxxx |xxxxxxxxxxxxx |xxxxxxxxxxxxx |           57 |           57 |           57 |xxxxxxxxxxxxx |xxxxxxxxxxxxx |xxxxxxxxxxxxx |xxxxxxxxxxxxx |           57 |           57 |           57 |xxxxxxxxxxxxx |xxxxxxxxxxxxx |xxxxxxxxxxxxx |xxxxxxxxxxxxx |           57 |           57 |           57 |
bpred_bimod.ras_rate.PP                     0.9828 |       0.9828 |       0.9828 |xxxxxxxxxxxxx |xxxxxxxxxxxxx |xxxxxxxxxxxxx |xxxxxxxxxxxxx |       0.9828 |       0.9828 |       0.9828 |xxxxxxxxxxxxx |xxxxxxxxxxxxx |xxxxxxxxxxxxx |xxxxxxxxxxxxx |       0.9828 |       0.9828 |       0.9828 |xxxxxxxxxxxxx |xxxxxxxxxxxxx |xxxxxxxxxxxxx |xxxxxxxxxxxxx |       0.9828 |       0.9828 |       0.9828 |xxxxxxxxxxxxx |xxxxxxxxxxxxx |xxxxxxxxxxxxx |xxxxxxxxxxxxx |       0.9828 |       0.9828 |       0.9828 |
bpred_2lev.lookups                   xxxxxxxxxxxxx |xxxxxxxxxxxxx |xxxxxxxxxxxxx |      7898832 |      7898832 |      7898832 |      7898832 |xxxxxxxxxxxxx |xxxxxxxxxxxxx |xxxxxxxxxxxxx |     31566436 |     31566436 |     31566436 |     31566436 |xxxxxxxxxxxxx |xxxxxxxxxxxxx |xxxxxxxxxxxxx |    125801144 |    125801144 |    125801144 |    125801144 |xxxxxxxxxxxxx |xxxxxxxxxxxxx |xxxxxxxxxxxxx |    503710341 |    503710341 |    503710341 |    503710341 |xxxxxxxxxxxxx |xxxxxxxxxxxxx |xxxxxxxxxxxxx |   2020506548 |   2020506548 |   2020506548 |   2020506548 |
bpred_2lev.updates                   xxxxxxxxxxxxx |xxxxxxxxxxxxx |xxxxxxxxxxxxx |      7898832 |      7898832 |      7898832 |      7898832 |xxxxxxxxxxxxx |xxxxxxxxxxxxx |xxxxxxxxxxxxx |     31566436 |     31566436 |     31566436 |     31566436 |xxxxxxxxxxxxx |xxxxxxxxxxxxx |xxxxxxxxxxxxx |    125801144 |    125801144 |    125801144 |    125801144 |xxxxxxxxxxxxx |xxxxxxxxxxxxx |xxxxxxxxxxxxx |    503710341 |    503710341 |    503710341 |    503710341 |xxxxxxxxxxxxx |xxxxxxxxxxxxx |xxxxxxxxxxxxx |   2020506548 |   2020506548 |   2020506548 |   2020506548 |
bpred_2lev.addr_hits                 xxxxxxxxxxxxx |xxxxxxxxxxxxx |xxxxxxxxxxxxx |      5952777 |      6191910 |      6327476 |      6388288 |xxxxxxxxxxxxx |xxxxxxxxxxxxx |xxxxxxxxxxxxx |     23914257 |     24618550 |     25033811 |     25201143 |xxxxxxxxxxxxx |xxxxxxxxxxxxx |xxxxxxxxxxxxx |     96827519 |     98869370 |    100106229 |    100557293 |xxxxxxxxxxxxx |xxxxxxxxxxxxx |xxxxxxxxxxxxx |    392225631 |    399260841 |    403174289 |    404469632 |xxxxxxxxxxxxx |xxxxxxxxxxxxx |xxxxxxxxxxxxx |   1580159247 |   1608921119 |   1623227521 |   1627449310 |
bpred_2lev.dir_hits                  xxxxxxxxxxxxx |xxxxxxxxxxxxx |xxxxxxxxxxxxx |      5952895 |      6192021 |      6327584 |      6388389 |xxxxxxxxxxxxx |xxxxxxxxxxxxx |xxxxxxxxxxxxx |     23914383 |     24618670 |     25033918 |     25201244 |xxxxxxxxxxxxx |xxxxxxxxxxxxx |xxxxxxxxxxxxx |     96827637 |     98869480 |    100106337 |    100557396 |xxxxxxxxxxxxx |xxxxxxxxxxxxx |xxxxxxxxxxxxx |    392225752 |    399260952 |    403174393 |    404469734 |xxxxxxxxxxxxx |xxxxxxxxxxxxx |xxxxxxxxxxxxx |   1580159364 |   1608921233 |   1623227625 |   1627449403 |
bpred_2lev.misses                    xxxxxxxxxxxxx |xxxxxxxxxxxxx |xxxxxxxxxxxxx |      1945937 |      1706811 |      1571248 |      1510443 |xxxxxxxxxxxxx |xxxxxxxxxxxxx |xxxxxxxxxxxxx |      7652053 |      6947766 |      6532518 |      6365192 |xxxxxxxxxxxxx |xxxxxxxxxxxxx |xxxxxxxxxxxxx |     28973507 |     26931664 |     25694807 |     25243748 |xxxxxxxxxxxxx |xxxxxxxxxxxxx |xxxxxxxxxxxxx |    111484589 |    104449389 |    100535948 |     99240607 |xxxxxxxxxxxxx |xxxxxxxxxxxxx |xxxxxxxxxxxxx |    440347184 |    411585315 |    397278923 |    393057145 |
bpred_2lev.jr_hits                   xxxxxxxxxxxxx |xxxxxxxxxxxxx |xxxxxxxxxxxxx |           57 |           57 |           57 |           57 |xxxxxxxxxxxxx |xxxxxxxxxxxxx |xxxxxxxxxxxxx |           57 |           57 |           57 |           57 |xxxxxxxxxxxxx |xxxxxxxxxxxxx |xxxxxxxxxxxxx |           57 |           57 |           57 |           57 |xxxxxxxxxxxxx |xxxxxxxxxxxxx |xxxxxxxxxxxxx |           57 |           57 |           57 |           57 |xxxxxxxxxxxxx |xxxxxxxxxxxxx |xxxxxxxxxxxxx |           57 |           57 |           57 |           57 |
bpred_2lev.jr_seen                   xxxxxxxxxxxxx |xxxxxxxxxxxxx |xxxxxxxxxxxxx |           58 |           58 |           58 |           58 |xxxxxxxxxxxxx |xxxxxxxxxxxxx |xxxxxxxxxxxxx |           58 |           58 |           58 |           58 |xxxxxxxxxxxxx |xxxxxxxxxxxxx |xxxxxxxxxxxxx |           58 |           58 |           58 |           58 |xxxxxxxxxxxxx |xxxxxxxxxxxxx |xxxxxxxxxxxxx |           58 |           58 |           58 |           58 |xxxxxxxxxxxxx |xxxxxxxxxxxxx |xxxxxxxxxxxxx |           58 |           58 |           58 |           58 |
bpred_2lev.jr_non_ras_hits.PP        xxxxxxxxxxxxx |xxxxxxxxxxxxx |xxxxxxxxxxxxx |            0 |            0 |            0 |            0 |xxxxxxxxxxxxx |xxxxxxxxxxxxx |xxxxxxxxxxxxx |            0 |            0 |            0 |            0 |xxxxxxxxxxxxx |xxxxxxxxxxxxx |xxxxxxxxxxxxx |            0 |            0 |            0 |            0 |xxxxxxxxxxxxx |xxxxxxxxxxxxx |xxxxxxxxxxxxx |            0 |            0 |            0 |            0 |xxxxxxxxxxxxx |xxxxxxxxxxxxx |xxxxxxxxxxxxx |            0 |            0 |            0 |            0 |
bpred_2lev.jr_non_ras_seen.PP        xxxxxxxxxxxxx |xxxxxxxxxxxxx |xxxxxxxxxxxxx |            0 |            0 |            0 |            0 |xxxxxxxxxxxxx |xxxxxxxxxxxxx |xxxxxxxxxxxxx |            0 |            0 |            0 |            0 |xxxxxxxxxxxxx |xxxxxxxxxxxxx |xxxxxxxxxxxxx |            0 |            0 |            0 |            0 |xxxxxxxxxxxxx |xxxxxxxxxxxxx |xxxxxxxxxxxxx |            0 |            0 |            0 |            0 |xxxxxxxxxxxxx |xxxxxxxxxxxxx |xxxxxxxxxxxxx |            0 |            0 |            0 |            0 |
bpred_2lev.bpred_addr_rate           xxxxxxxxxxxxx |xxxxxxxxxxxxx |xxxxxxxxxxxxx |       0.7536 |       0.7839 |       0.8011 |       0.8088 |xxxxxxxxxxxxx |xxxxxxxxxxxxx |xxxxxxxxxxxxx |       0.7576 |       0.7799 |       0.7931 |       0.7984 |xxxxxxxxxxxxx |xxxxxxxxxxxxx |xxxxxxxxxxxxx |       0.7697 |       0.7859 |       0.7957 |       0.7993 |xxxxxxxxxxxxx |xxxxxxxxxxxxx |xxxxxxxxxxxxx |       0.7787 |       0.7926 |       0.8004 |       0.8030 |xxxxxxxxxxxxx |xxxxxxxxxxxxx |xxxxxxxxxxxxx |       0.7821 |       0.7963 |       0.8034 |       0.8055 |
bpred_2lev.bpred_dir_rate            xxxxxxxxxxxxx |xxxxxxxxxxxxx |xxxxxxxxxxxxx |       0.7536 |       0.7839 |       0.8011 |       0.8088 |xxxxxxxxxxxxx |xxxxxxxxxxxxx |xxxxxxxxxxxxx |       0.7576 |       0.7799 |       0.7931 |       0.7984 |xxxxxxxxxxxxx |xxxxxxxxxxxxx |xxxxxxxxxxxxx |       0.7697 |       0.7859 |       0.7958 |       0.7993 |xxxxxxxxxxxxx |xxxxxxxxxxxxx |xxxxxxxxxxxxx |       0.7787 |       0.7926 |       0.8004 |       0.8030 |xxxxxxxxxxxxx |xxxxxxxxxxxxx |xxxxxxxxxxxxx |       0.7821 |       0.7963 |       0.8034 |       0.8055 |
bpred_2lev.bpred_jr_rate             xxxxxxxxxxxxx |xxxxxxxxxxxxx |xxxxxxxxxxxxx |       0.9828 |       0.9828 |       0.9828 |       0.9828 |xxxxxxxxxxxxx |xxxxxxxxxxxxx |xxxxxxxxxxxxx |       0.9828 |       0.9828 |       0.9828 |       0.9828 |xxxxxxxxxxxxx |xxxxxxxxxxxxx |xxxxxxxxxxxxx |       0.9828 |       0.9828 |       0.9828 |       0.9828 |xxxxxxxxxxxxx |xxxxxxxxxxxxx |xxxxxxxxxxxxx |       0.9828 |       0.9828 |       0.9828 |       0.9828 |xxxxxxxxxxxxx |xxxxxxxxxxxxx |xxxxxxxxxxxxx |       0.9828 |       0.9828 |       0.9828 |       0.9828 |
bpred_2lev.bpred_jr_non_ras_rate.PP  xxxxxxxxxxxxx |xxxxxxxxxxxxx |xxxxxxxxxxxxx |      <error: |      <error: |      <error: |      <error: |xxxxxxxxxxxxx |xxxxxxxxxxxxx |xxxxxxxxxxxxx |      <error: |      <error: |      <error: |      <error: |xxxxxxxxxxxxx |xxxxxxxxxxxxx |xxxxxxxxxxxxx |      <error: |      <error: |      <error: |      <error: |xxxxxxxxxxxxx |xxxxxxxxxxxxx |xxxxxxxxxxxxx |      <error: |      <error: |      <error: |      <error: |xxxxxxxxxxxxx |xxxxxxxxxxxxx |xxxxxxxxxxxxx |      <error: |      <error: |      <error: |      <error: |
bpred_2lev.retstack_pushes           xxxxxxxxxxxxx |xxxxxxxxxxxxx |xxxxxxxxxxxxx |           60 |           60 |           60 |           60 |xxxxxxxxxxxxx |xxxxxxxxxxxxx |xxxxxxxxxxxxx |           60 |           60 |           60 |           60 |xxxxxxxxxxxxx |xxxxxxxxxxxxx |xxxxxxxxxxxxx |           60 |           60 |           60 |           60 |xxxxxxxxxxxxx |xxxxxxxxxxxxx |xxxxxxxxxxxxx |           60 |           60 |           60 |           60 |xxxxxxxxxxxxx |xxxxxxxxxxxxx |xxxxxxxxxxxxx |           60 |           60 |           60 |           60 |
bpred_2lev.retstack_pops             xxxxxxxxxxxxx |xxxxxxxxxxxxx |xxxxxxxxxxxxx |           58 |           58 |           58 |           58 |xxxxxxxxxxxxx |xxxxxxxxxxxxx |xxxxxxxxxxxxx |           58 |           58 |           58 |           58 |xxxxxxxxxxxxx |xxxxxxxxxxxxx |xxxxxxxxxxxxx |           58 |           58 |           58 |           58 |xxxxxxxxxxxxx |xxxxxxxxxxxxx |xxxxxxxxxxxxx |           58 |           58 |           58 |           58 |xxxxxxxxxxxxx |xxxxxxxxxxxxx |xxxxxxxxxxxxx |           58 |           58 |           58 |           58 |
bpred_2lev.used_ras.PP               xxxxxxxxxxxxx |xxxxxxxxxxxxx |xxxxxxxxxxxxx |           58 |           58 |           58 |           58 |xxxxxxxxxxxxx |xxxxxxxxxxxxx |xxxxxxxxxxxxx |           58 |           58 |           58 |           58 |xxxxxxxxxxxxx |xxxxxxxxxxxxx |xxxxxxxxxxxxx |           58 |           58 |           58 |           58 |xxxxxxxxxxxxx |xxxxxxxxxxxxx |xxxxxxxxxxxxx |           58 |           58 |           58 |           58 |xxxxxxxxxxxxx |xxxxxxxxxxxxx |xxxxxxxxxxxxx |           58 |           58 |           58 |           58 |
bpred_2lev.ras_hits.PP               xxxxxxxxxxxxx |xxxxxxxxxxxxx |xxxxxxxxxxxxx |           57 |           57 |           57 |           57 |xxxxxxxxxxxxx |xxxxxxxxxxxxx |xxxxxxxxxxxxx |           57 |           57 |           57 |           57 |xxxxxxxxxxxxx |xxxxxxxxxxxxx |xxxxxxxxxxxxx |           57 |           57 |           57 |           57 |xxxxxxxxxxxxx |xxxxxxxxxxxxx |xxxxxxxxxxxxx |           57 |           57 |           57 |           57 |xxxxxxxxxxxxx |xxxxxxxxxxxxx |xxxxxxxxxxxxx |           57 |           57 |           57 |           57 |
bpred_2lev.ras_rate.PP               xxxxxxxxxxxxx |xxxxxxxxxxxxx |xxxxxxxxxxxxx |       0.9828 |       0.9828 |       0.9828 |       0.9828 |xxxxxxxxxxxxx |xxxxxxxxxxxxx |xxxxxxxxxxxxx |       0.9828 |       0.9828 |       0.9828 |       0.9828 |xxxxxxxxxxxxx |xxxxxxxxxxxxx |xxxxxxxxxxxxx |       0.9828 |       0.9828 |       0.9828 |       0.9828 |xxxxxxxxxxxxx |xxxxxxxxxxxxx |xxxxxxxxxxxxx |       0.9828 |       0.9828 |       0.9828 |       0.9828 |xxxxxxxxxxxxx |xxxxxxxxxxxxx |xxxxxxxxxxxxx |       0.9828 |       0.9828 |       0.9828 |       0.9828 |

Command list: 
	sslittle-na-sstrix-gcc -Wall -O3 -funroll-loops -finline-functions  -DRANDOM_SIZE=4096 -DOFFSET=3 -DSORT=on2_shakersort sorts/on2_shakersort2134744934.c simpleMain.c -o on2_shakersort1303928719
	sim-cache -cache:dl1 dl1:256:32:1:l -cache:dl2 dl2:131072:32:1:l -cache:il1 il1:256:32:1:l -cache:il2 dl2 on2_shakersort1303928719
	sim-cache -cache:dl1 dl1:256:32:1:l -cache:dl2 dl2:65536:32:1:l -cache:il1 il1:256:32:1:l -cache:il2 dl2 on2_shakersort1303928719
	sim-cache -cache:dl1 dl1:1:32:256:l -cache:dl2 dl2:1:32:131072:l -cache:il1 il1:1:32:256:l -cache:il2 dl2 on2_shakersort1303928719
	sim-cache -cache:dl1 dl1:1:32:256:l -cache:dl2 dl2:1:32:65536:l -cache:il1 il1:1:32:256:l -cache:il2 dl2 on2_shakersort1303928719
	sim-bpred -bpred bimod -bpred:bimod 512 on2_shakersort1303928719
	sim-bpred -bpred bimod -bpred:bimod 1024 on2_shakersort1303928719
	sim-bpred -bpred bimod -bpred:bimod 2048 on2_shakersort1303928719
	sim-bpred -bpred 2lev -bpred:2lev 1 512 10 1 on2_shakersort1303928719
	sim-bpred -bpred 2lev -bpred:2lev 1 1024 10 1 on2_shakersort1303928719
	sim-bpred -bpred 2lev -bpred:2lev 1 2048 10 1 on2_shakersort1303928719
	sim-bpred -bpred 2lev -bpred:2lev 1 4096 10 1 on2_shakersort1303928719
	sslittle-na-sstrix-gcc -Wall -O3 -funroll-loops -finline-functions  -DRANDOM_SIZE=8192 -DOFFSET=3 -DSORT=on2_shakersort sorts/on2_shakersort2134744934.c simpleMain.c -o on2_shakersort1303928719
	sim-cache -cache:dl1 dl1:256:32:1:l -cache:dl2 dl2:131072:32:1:l -cache:il1 il1:256:32:1:l -cache:il2 dl2 on2_shakersort1303928719
	sim-cache -cache:dl1 dl1:256:32:1:l -cache:dl2 dl2:65536:32:1:l -cache:il1 il1:256:32:1:l -cache:il2 dl2 on2_shakersort1303928719
	sim-cache -cache:dl1 dl1:1:32:256:l -cache:dl2 dl2:1:32:131072:l -cache:il1 il1:1:32:256:l -cache:il2 dl2 on2_shakersort1303928719
	sim-cache -cache:dl1 dl1:1:32:256:l -cache:dl2 dl2:1:32:65536:l -cache:il1 il1:1:32:256:l -cache:il2 dl2 on2_shakersort1303928719
	sim-bpred -bpred bimod -bpred:bimod 512 on2_shakersort1303928719
	sim-bpred -bpred bimod -bpred:bimod 1024 on2_shakersort1303928719
	sim-bpred -bpred bimod -bpred:bimod 2048 on2_shakersort1303928719
	sim-bpred -bpred 2lev -bpred:2lev 1 512 10 1 on2_shakersort1303928719
	sim-bpred -bpred 2lev -bpred:2lev 1 1024 10 1 on2_shakersort1303928719
	sim-bpred -bpred 2lev -bpred:2lev 1 2048 10 1 on2_shakersort1303928719
	sim-bpred -bpred 2lev -bpred:2lev 1 4096 10 1 on2_shakersort1303928719
	sslittle-na-sstrix-gcc -Wall -O3 -funroll-loops -finline-functions  -DRANDOM_SIZE=16384 -DOFFSET=3 -DSORT=on2_shakersort sorts/on2_shakersort2134744934.c simpleMain.c -o on2_shakersort1303928719
	sim-cache -cache:dl1 dl1:256:32:1:l -cache:dl2 dl2:131072:32:1:l -cache:il1 il1:256:32:1:l -cache:il2 dl2 on2_shakersort1303928719
	sim-cache -cache:dl1 dl1:256:32:1:l -cache:dl2 dl2:65536:32:1:l -cache:il1 il1:256:32:1:l -cache:il2 dl2 on2_shakersort1303928719
	sim-cache -cache:dl1 dl1:1:32:256:l -cache:dl2 dl2:1:32:131072:l -cache:il1 il1:1:32:256:l -cache:il2 dl2 on2_shakersort1303928719
	sim-cache -cache:dl1 dl1:1:32:256:l -cache:dl2 dl2:1:32:65536:l -cache:il1 il1:1:32:256:l -cache:il2 dl2 on2_shakersort1303928719
	sim-bpred -bpred bimod -bpred:bimod 512 on2_shakersort1303928719
	sim-bpred -bpred bimod -bpred:bimod 1024 on2_shakersort1303928719
	sim-bpred -bpred bimod -bpred:bimod 2048 on2_shakersort1303928719
	sim-bpred -bpred 2lev -bpred:2lev 1 512 10 1 on2_shakersort1303928719
	sim-bpred -bpred 2lev -bpred:2lev 1 1024 10 1 on2_shakersort1303928719
	sim-bpred -bpred 2lev -bpred:2lev 1 2048 10 1 on2_shakersort1303928719
	sim-bpred -bpred 2lev -bpred:2lev 1 4096 10 1 on2_shakersort1303928719
	sslittle-na-sstrix-gcc -Wall -O3 -funroll-loops -finline-functions  -DRANDOM_SIZE=32768 -DOFFSET=3 -DSORT=on2_shakersort sorts/on2_shakersort2134744934.c simpleMain.c -o on2_shakersort1303928719
	sim-cache -cache:dl1 dl1:256:32:1:l -cache:dl2 dl2:131072:32:1:l -cache:il1 il1:256:32:1:l -cache:il2 dl2 on2_shakersort1303928719
	sim-cache -cache:dl1 dl1:256:32:1:l -cache:dl2 dl2:65536:32:1:l -cache:il1 il1:256:32:1:l -cache:il2 dl2 on2_shakersort1303928719
	sim-cache -cache:dl1 dl1:1:32:256:l -cache:dl2 dl2:1:32:131072:l -cache:il1 il1:1:32:256:l -cache:il2 dl2 on2_shakersort1303928719
	sim-cache -cache:dl1 dl1:1:32:256:l -cache:dl2 dl2:1:32:65536:l -cache:il1 il1:1:32:256:l -cache:il2 dl2 on2_shakersort1303928719
	sim-bpred -bpred bimod -bpred:bimod 512 on2_shakersort1303928719
	sim-bpred -bpred bimod -bpred:bimod 1024 on2_shakersort1303928719
	sim-bpred -bpred bimod -bpred:bimod 2048 on2_shakersort1303928719
	sim-bpred -bpred 2lev -bpred:2lev 1 512 10 1 on2_shakersort1303928719
	sim-bpred -bpred 2lev -bpred:2lev 1 1024 10 1 on2_shakersort1303928719
	sim-bpred -bpred 2lev -bpred:2lev 1 2048 10 1 on2_shakersort1303928719
	sim-bpred -bpred 2lev -bpred:2lev 1 4096 10 1 on2_shakersort1303928719
	sslittle-na-sstrix-gcc -Wall -O3 -funroll-loops -finline-functions  -DRANDOM_SIZE=65536 -DOFFSET=3 -DSORT=on2_shakersort sorts/on2_shakersort2134744934.c simpleMain.c -o on2_shakersort1303928719
	sim-cache -cache:dl1 dl1:256:32:1:l -cache:dl2 dl2:131072:32:1:l -cache:il1 il1:256:32:1:l -cache:il2 dl2 on2_shakersort1303928719
	sim-cache -cache:dl1 dl1:256:32:1:l -cache:dl2 dl2:65536:32:1:l -cache:il1 il1:256:32:1:l -cache:il2 dl2 on2_shakersort1303928719
	sim-cache -cache:dl1 dl1:1:32:256:l -cache:dl2 dl2:1:32:131072:l -cache:il1 il1:1:32:256:l -cache:il2 dl2 on2_shakersort1303928719
	sim-cache -cache:dl1 dl1:1:32:256:l -cache:dl2 dl2:1:32:65536:l -cache:il1 il1:1:32:256:l -cache:il2 dl2 on2_shakersort1303928719
	sim-bpred -bpred bimod -bpred:bimod 512 on2_shakersort1303928719
	sim-bpred -bpred bimod -bpred:bimod 1024 on2_shakersort1303928719
	sim-bpred -bpred bimod -bpred:bimod 2048 on2_shakersort1303928719
	sim-bpred -bpred 2lev -bpred:2lev 1 512 10 1 on2_shakersort1303928719
	sim-bpred -bpred 2lev -bpred:2lev 1 1024 10 1 on2_shakersort1303928719
	sim-bpred -bpred 2lev -bpred:2lev 1 2048 10 1 on2_shakersort1303928719
	sim-bpred -bpred 2lev -bpred:2lev 1 4096 10 1 on2_shakersort1303928719
