Wed Jul 13 08:38:53 2005
Run as: "./do_simple -c random.org5 -o 5 shellsort"
-------------------------------------------------------------------------------------------------
sim-cache                                     4096 |         4096 |         4096 |         4096 |         8192 |         8192 |         8192 |         8192 |        16384 |        16384 |        16384 |        16384 |        32768 |        32768 |        32768 |        32768 |        65536 |        65536 |        65536 |        65536 |       131072 |       131072 |       131072 |       131072 |       262144 |       262144 |       262144 |       262144 |       524288 |       524288 |       524288 |       524288 |      1048576 |      1048576 |      1048576 |      1048576 |      2097152 |      2097152 |      2097152 |      2097152 |      4194304 |      4194304 |      4194304 |      4194304 |
-cache:dl1 dl1:256:32:1:l -cache:dl2 dl2:131072:32:1:l -cache:il1 il1:256:32:1:l -cache:il2 dl2
-cache:dl1 dl1:256:32:1:l -cache:dl2 dl2:65536:32:1:l -cache:il1 il1:256:32:1:l -cache:il2 dl2
-cache:dl1 dl1:1:32:256:l -cache:dl2 dl2:1:32:131072:l -cache:il1 il1:1:32:256:l -cache:il2 dl2
-cache:dl1 dl1:1:32:256:l -cache:dl2 dl2:1:32:65536:l -cache:il1 il1:1:32:256:l -cache:il2 dl2
-------------------------------------------------------------------------------------------------
sim_num_insn                                985099 |       985099 |       985099 |       985099 |      2233726 |      2233726 |      2233726 |      2233726 |      4903130 |      4903130 |      4903130 |      4903130 |     10658540 |     10658540 |     10658540 |     10658540 |     22724012 |     22724012 |     22724012 |     22724012 |     49416134 |     49416134 |     49416134 |     49416134 |    101613220 |    101613220 |    101613220 |    101613220 |    217903806 |    217903806 |    217903806 |    217903806 |    463623767 |    463623767 |    463623767 |    463623767 |    996415270 |    996415270 |    996415270 |    996415270 |   2076755514 |   2076755514 |   2076755514 |   2076755514 |
sim_num_refs                                185534 |       185534 |       185534 |       185534 |       416502 |       416502 |       416502 |       416502 |       911232 |       911232 |       911232 |       911232 |      1978325 |      1978325 |      1978325 |      1978325 |      4188576 |      4188576 |      4188576 |      4188576 |      9101471 |      9101471 |      9101471 |      9101471 |     18794945 |     18794945 |     18794945 |     18794945 |     40295703 |     40295703 |     40295703 |     40295703 |     85749165 |     85749165 |     85749165 |     85749165 |    184072310 |    184072310 |    184072310 |    184072310 |    384226719 |    384226719 |    384226719 |    384226719 |
sim_elapsed_time                                 1 |            1 |            7 |            4 |            1 |            1 |           10 |            5 |            1 |            1 |           16 |            9 |            3 |            3 |           28 |           15 |            6 |            6 |           52 |           28 |           13 |           12 |           98 |           53 |           26 |           26 |          182 |           93 |           56 |           56 |          323 |          146 |          120 |          120 |          476 |          220 |          259 |          259 |          635 |          375 |          541 |          541 |          953 |          691 |
sim_inst_rate                          985099.0000 |  985099.0000 |  140728.4286 |  246274.7500 | 2233726.0000 | 2233726.0000 |  223372.6000 |  446745.2000 | 4903130.0000 | 4903130.0000 |  306445.6250 |  544792.2222 | 3552846.6667 | 3552846.6667 |  380662.1429 |  710569.3333 | 3787335.3333 | 3787335.3333 |  437000.2308 |  811571.8571 | 3801241.0769 | 4118011.1667 |  504246.2653 |  932379.8868 | 3908200.7692 | 3908200.7692 |  558314.3956 | 1092615.2688 | 3891139.3929 | 3891139.3929 |  674624.7864 | 1492491.8219 | 3863531.3917 | 3863531.3917 |  973999.5105 | 2107380.7591 | 3847163.2046 | 3847163.2046 | 1569157.9055 | 2657107.3867 | 3838734.7763 | 3838734.7763 | 2179176.8248 | 3005434.8973 |
il1.accesses                                985099 |       985099 |       985099 |       985099 |      2233726 |      2233726 |      2233726 |      2233726 |      4903130 |      4903130 |      4903130 |      4903130 |     10658540 |     10658540 |     10658540 |     10658540 |     22724012 |     22724012 |     22724012 |     22724012 |     49416134 |     49416134 |     49416134 |     49416134 |    101613220 |    101613220 |    101613220 |    101613220 |    217903806 |    217903806 |    217903806 |    217903806 |    463623767 |    463623767 |    463623767 |    463623767 |    996415270 |    996415270 |    996415270 |    996415270 |   2076755514 |   2076755514 |   2076755514 |   2076755514 |
il1.hits                                    984723 |       984723 |       984778 |       984778 |      2233350 |      2233350 |      2233405 |      2233405 |      4902744 |      4902744 |      4902803 |      4902803 |     10658162 |     10658162 |     10658217 |     10658217 |     22723634 |     22723634 |     22723689 |     22723689 |     49415756 |     49415756 |     49415811 |     49415811 |    101612842 |    101612842 |    101612897 |    101612897 |    217903428 |    217903428 |    217903483 |    217903483 |    463623389 |    463623389 |    463623444 |    463623444 |    996414892 |    996414892 |    996414947 |    996414947 |   2076755136 |   2076755136 |   2076755191 |   2076755191 |
il1.misses                                     376 |          376 |          321 |          321 |          376 |          376 |          321 |          321 |          386 |          386 |          327 |          327 |          378 |          378 |          323 |          323 |          378 |          378 |          323 |          323 |          378 |          378 |          323 |          323 |          378 |          378 |          323 |          323 |          378 |          378 |          323 |          323 |          378 |          378 |          323 |          323 |          378 |          378 |          323 |          323 |          378 |          378 |          323 |          323 |
il1.replacements                               190 |          190 |           65 |           65 |          190 |          190 |           65 |           65 |          196 |          196 |           71 |           71 |          192 |          192 |           67 |           67 |          192 |          192 |           67 |           67 |          192 |          192 |           67 |           67 |          192 |          192 |           67 |           67 |          192 |          192 |           67 |           67 |          192 |          192 |           67 |           67 |          192 |          192 |           67 |           67 |          192 |          192 |           67 |           67 |
il1.writebacks                                   0 |            0 |            0 |            0 |            0 |            0 |            0 |            0 |            0 |            0 |            0 |            0 |            0 |            0 |            0 |            0 |            0 |            0 |            0 |            0 |            0 |            0 |            0 |            0 |            0 |            0 |            0 |            0 |            0 |            0 |            0 |            0 |            0 |            0 |            0 |            0 |            0 |            0 |            0 |            0 |            0 |            0 |            0 |            0 |
il1.invalidations                                0 |            0 |            0 |            0 |            0 |            0 |            0 |            0 |            0 |            0 |            0 |            0 |            0 |            0 |            0 |            0 |            0 |            0 |            0 |            0 |            0 |            0 |            0 |            0 |            0 |            0 |            0 |            0 |            0 |            0 |            0 |            0 |            0 |            0 |            0 |            0 |            0 |            0 |            0 |            0 |            0 |            0 |            0 |            0 |
il1.miss_rate                               0.0004 |       0.0004 |       0.0003 |       0.0003 |       0.0002 |       0.0002 |       0.0001 |       0.0001 |       0.0001 |       0.0001 |       0.0001 |       0.0001 |       0.0000 |       0.0000 |       0.0000 |       0.0000 |       0.0000 |       0.0000 |       0.0000 |       0.0000 |       0.0000 |       0.0000 |       0.0000 |       0.0000 |       0.0000 |       0.0000 |       0.0000 |       0.0000 |       0.0000 |       0.0000 |       0.0000 |       0.0000 |       0.0000 |       0.0000 |       0.0000 |       0.0000 |       0.0000 |       0.0000 |       0.0000 |       0.0000 |       0.0000 |       0.0000 |       0.0000 |       0.0000 |
il1.repl_rate                               0.0002 |       0.0002 |       0.0001 |       0.0001 |       0.0001 |       0.0001 |       0.0000 |       0.0000 |       0.0000 |       0.0000 |       0.0000 |       0.0000 |       0.0000 |       0.0000 |       0.0000 |       0.0000 |       0.0000 |       0.0000 |       0.0000 |       0.0000 |       0.0000 |       0.0000 |       0.0000 |       0.0000 |       0.0000 |       0.0000 |       0.0000 |       0.0000 |       0.0000 |       0.0000 |       0.0000 |       0.0000 |       0.0000 |       0.0000 |       0.0000 |       0.0000 |       0.0000 |       0.0000 |       0.0000 |       0.0000 |       0.0000 |       0.0000 |       0.0000 |       0.0000 |
il1.wb_rate                                 0.0000 |       0.0000 |       0.0000 |       0.0000 |       0.0000 |       0.0000 |       0.0000 |       0.0000 |       0.0000 |       0.0000 |       0.0000 |       0.0000 |       0.0000 |       0.0000 |       0.0000 |       0.0000 |       0.0000 |       0.0000 |       0.0000 |       0.0000 |       0.0000 |       0.0000 |       0.0000 |       0.0000 |       0.0000 |       0.0000 |       0.0000 |       0.0000 |       0.0000 |       0.0000 |       0.0000 |       0.0000 |       0.0000 |       0.0000 |       0.0000 |       0.0000 |       0.0000 |       0.0000 |       0.0000 |       0.0000 |       0.0000 |       0.0000 |       0.0000 |       0.0000 |
il1.inv_rate                                0.0000 |       0.0000 |       0.0000 |       0.0000 |       0.0000 |       0.0000 |       0.0000 |       0.0000 |       0.0000 |       0.0000 |       0.0000 |       0.0000 |       0.0000 |       0.0000 |       0.0000 |       0.0000 |       0.0000 |       0.0000 |       0.0000 |       0.0000 |       0.0000 |       0.0000 |       0.0000 |       0.0000 |       0.0000 |       0.0000 |       0.0000 |       0.0000 |       0.0000 |       0.0000 |       0.0000 |       0.0000 |       0.0000 |       0.0000 |       0.0000 |       0.0000 |       0.0000 |       0.0000 |       0.0000 |       0.0000 |       0.0000 |       0.0000 |       0.0000 |       0.0000 |
dl1.accesses                                202000 |       202000 |       202000 |       202000 |       449352 |       449352 |       449352 |       449352 |       976850 |       976850 |       976850 |       976850 |      2109479 |      2109479 |      2109479 |      2109479 |      4450802 |      4450802 |      4450802 |      4450802 |      9625841 |      9625841 |      9625841 |      9625841 |     19843603 |     19843603 |     19843603 |     19843603 |     42392937 |     42392937 |     42392937 |     42392937 |     89943551 |     89943551 |     89943551 |     89943551 |    192461000 |    192461000 |    192461000 |    192461000 |    401004017 |    401004017 |    401004017 |    401004017 |
dl1.hits                                    195518 |       195518 |       195126 |       195126 |       432662 |       432662 |       432049 |       432049 |       934221 |       934221 |       932934 |       932934 |      2008875 |      2008875 |      2002146 |      2002146 |      4213093 |      4213093 |      4200393 |      4200393 |      9062235 |      9062235 |      9037922 |      9037922 |     18575760 |     18575760 |     18483650 |     18483650 |     39502158 |     39502158 |     39307041 |     39307041 |     83527642 |     83527642 |     83017995 |     83017995 |    178174440 |    178174440 |    177769653 |    177769653 |    369722358 |    369722358 |    369535521 |    369535521 |
dl1.misses                                    6482 |         6482 |         6874 |         6874 |        16690 |        16690 |        17303 |        17303 |        42629 |        42629 |        43916 |        43916 |       100604 |       100604 |       107333 |       107333 |       237709 |       237709 |       250409 |       250409 |       563606 |       563606 |       587919 |       587919 |      1267843 |      1267843 |      1359953 |      1359953 |      2890779 |      2890779 |      3085896 |      3085896 |      6415909 |      6415909 |      6925556 |      6925556 |     14286560 |     14286560 |     14691347 |     14691347 |     31281659 |     31281659 |     31468496 |     31468496 |
dl1.replacements                              6226 |         6226 |         6618 |         6618 |        16434 |        16434 |        17047 |        17047 |        42373 |        42373 |        43660 |        43660 |       100348 |       100348 |       107077 |       107077 |       237453 |       237453 |       250153 |       250153 |       563350 |       563350 |       587663 |       587663 |      1267587 |      1267587 |      1359697 |      1359697 |      2890523 |      2890523 |      3085640 |      3085640 |      6415653 |      6415653 |      6925300 |      6925300 |     14286304 |     14286304 |     14691091 |     14691091 |     31281403 |     31281403 |     31468240 |     31468240 |
dl1.writebacks                                6105 |         6105 |         6408 |         6408 |        15334 |        15334 |        15847 |        15847 |        38385 |        38385 |        39408 |        39408 |        89511 |        89511 |        94991 |        94991 |       207451 |       207451 |       218122 |       218122 |       487029 |       487029 |       507907 |       507907 |      1092105 |      1092105 |      1168157 |      1168157 |      2473830 |      2473830 |      2637688 |      2637688 |      5484185 |      5484185 |      5900960 |      5900960 |     12164294 |     12164294 |     12501248 |     12501248 |     26590897 |     26590897 |     26717356 |     26717356 |
dl1.invalidations                                0 |            0 |            0 |            0 |            0 |            0 |            0 |            0 |            0 |            0 |            0 |            0 |            0 |            0 |            0 |            0 |            0 |            0 |            0 |            0 |            0 |            0 |            0 |            0 |            0 |            0 |            0 |            0 |            0 |            0 |            0 |            0 |            0 |            0 |            0 |            0 |            0 |            0 |            0 |            0 |            0 |            0 |            0 |            0 |
dl1.miss_rate                               0.0321 |       0.0321 |       0.0340 |       0.0340 |       0.0371 |       0.0371 |       0.0385 |       0.0385 |       0.0436 |       0.0436 |       0.0450 |       0.0450 |       0.0477 |       0.0477 |       0.0509 |       0.0509 |       0.0534 |       0.0534 |       0.0563 |       0.0563 |       0.0586 |       0.0586 |       0.0611 |       0.0611 |       0.0639 |       0.0639 |       0.0685 |       0.0685 |       0.0682 |       0.0682 |       0.0728 |       0.0728 |       0.0713 |       0.0713 |       0.0770 |       0.0770 |       0.0742 |       0.0742 |       0.0763 |       0.0763 |       0.0780 |       0.0780 |       0.0785 |       0.0785 |
dl1.repl_rate                               0.0308 |       0.0308 |       0.0328 |       0.0328 |       0.0366 |       0.0366 |       0.0379 |       0.0379 |       0.0434 |       0.0434 |       0.0447 |       0.0447 |       0.0476 |       0.0476 |       0.0508 |       0.0508 |       0.0534 |       0.0534 |       0.0562 |       0.0562 |       0.0585 |       0.0585 |       0.0611 |       0.0611 |       0.0639 |       0.0639 |       0.0685 |       0.0685 |       0.0682 |       0.0682 |       0.0728 |       0.0728 |       0.0713 |       0.0713 |       0.0770 |       0.0770 |       0.0742 |       0.0742 |       0.0763 |       0.0763 |       0.0780 |       0.0780 |       0.0785 |       0.0785 |
dl1.wb_rate                                 0.0302 |       0.0302 |       0.0317 |       0.0317 |       0.0341 |       0.0341 |       0.0353 |       0.0353 |       0.0393 |       0.0393 |       0.0403 |       0.0403 |       0.0424 |       0.0424 |       0.0450 |       0.0450 |       0.0466 |       0.0466 |       0.0490 |       0.0490 |       0.0506 |       0.0506 |       0.0528 |       0.0528 |       0.0550 |       0.0550 |       0.0589 |       0.0589 |       0.0584 |       0.0584 |       0.0622 |       0.0622 |       0.0610 |       0.0610 |       0.0656 |       0.0656 |       0.0632 |       0.0632 |       0.0650 |       0.0650 |       0.0663 |       0.0663 |       0.0666 |       0.0666 |
dl1.inv_rate                                0.0000 |       0.0000 |       0.0000 |       0.0000 |       0.0000 |       0.0000 |       0.0000 |       0.0000 |       0.0000 |       0.0000 |       0.0000 |       0.0000 |       0.0000 |       0.0000 |       0.0000 |       0.0000 |       0.0000 |       0.0000 |       0.0000 |       0.0000 |       0.0000 |       0.0000 |       0.0000 |       0.0000 |       0.0000 |       0.0000 |       0.0000 |       0.0000 |       0.0000 |       0.0000 |       0.0000 |       0.0000 |       0.0000 |       0.0000 |       0.0000 |       0.0000 |       0.0000 |       0.0000 |       0.0000 |       0.0000 |       0.0000 |       0.0000 |       0.0000 |       0.0000 |
dl2.accesses                                 12963 |        12963 |        13603 |        13603 |        32400 |        32400 |        33471 |        33471 |        81400 |        81400 |        83651 |        83651 |       190493 |       190493 |       202647 |       202647 |       445538 |       445538 |       468854 |       468854 |      1051013 |      1051013 |      1096149 |      1096149 |      2360326 |      2360326 |      2528433 |      2528433 |      5364987 |      5364987 |      5723907 |      5723907 |     11900472 |     11900472 |     12826839 |     12826839 |     26451232 |     26451232 |     27192918 |     27192918 |     57872934 |     57872934 |     58186175 |     58186175 |
dl2.hits                                     11717 |        11717 |        12359 |        12359 |        30642 |        30642 |        31715 |        31715 |        78613 |        78613 |        80864 |        80864 |       185661 |       185661 |       197817 |       197817 |       436610 |       436610 |       459928 |       459928 |      1033893 |      1033893 |      1079031 |      1079031 |      2326822 |      2326822 |      2494931 |      2494931 |      5298715 |      5298642 |      5657637 |      5373273 |     11768589 |      9442625 |     12111136 |     10266338 |     21273790 |     20450240 |     21810024 |     21030321 |     45348397 |     43434759 |     45338346 |     43397508 |
dl2.misses                                    1246 |         1246 |         1244 |         1244 |         1758 |         1758 |         1756 |         1756 |         2787 |         2787 |         2787 |         2787 |         4832 |         4832 |         4830 |         4830 |         8928 |         8928 |         8926 |         8926 |        17120 |        17120 |        17118 |        17118 |        33504 |        33504 |        33502 |        33502 |        66272 |        66345 |        66270 |       350634 |       131883 |      2457847 |       715703 |      2560501 |      5177442 |      6000992 |      5382894 |      6162597 |     12524537 |     14438175 |     12847829 |     14788667 |
dl2.replacements                                62 |           62 |            0 |            0 |           63 |           63 |            0 |            0 |           60 |           60 |            0 |            0 |           63 |           63 |            0 |            0 |           63 |           63 |            0 |            0 |           63 |           63 |            0 |            0 |           63 |           63 |            0 |            0 |           63 |          809 |            0 |       285098 |          811 |      2392311 |       584631 |      2494965 |      5046370 |      5935456 |      5251822 |      6097061 |     12393465 |     14372639 |     12716757 |     14723131 |
dl2.writebacks                                   0 |            0 |            0 |            0 |            0 |            0 |            0 |            0 |            0 |            0 |            0 |            0 |            0 |            0 |            0 |            0 |            0 |            0 |            0 |            0 |            0 |            0 |            0 |            0 |            0 |            0 |            0 |            0 |            0 |          650 |            0 |       284991 |          653 |      2366466 |       584523 |      2444971 |      4995019 |      5657622 |      5152000 |      5789175 |     11838145 |     13356142 |     12101530 |     13632813 |
dl2.invalidations                                0 |            0 |            0 |            0 |            0 |            0 |            0 |            0 |            0 |            0 |            0 |            0 |            0 |            0 |            0 |            0 |            0 |            0 |            0 |            0 |            0 |            0 |            0 |            0 |            0 |            0 |            0 |            0 |            0 |            0 |            0 |            0 |            0 |            0 |            0 |            0 |            0 |            0 |            0 |            0 |            0 |            0 |            0 |            0 |
dl2.miss_rate                               0.0961 |       0.0961 |       0.0915 |       0.0915 |       0.0543 |       0.0543 |       0.0525 |       0.0525 |       0.0342 |       0.0342 |       0.0333 |       0.0333 |       0.0254 |       0.0254 |       0.0238 |       0.0238 |       0.0200 |       0.0200 |       0.0190 |       0.0190 |       0.0163 |       0.0163 |       0.0156 |       0.0156 |       0.0142 |       0.0142 |       0.0133 |       0.0133 |       0.0124 |       0.0124 |       0.0116 |       0.0613 |       0.0111 |       0.2065 |       0.0558 |       0.1996 |       0.1957 |       0.2269 |       0.1980 |       0.2266 |       0.2164 |       0.2495 |       0.2208 |       0.2542 |
dl2.repl_rate                               0.0048 |       0.0048 |       0.0000 |       0.0000 |       0.0019 |       0.0019 |       0.0000 |       0.0000 |       0.0007 |       0.0007 |       0.0000 |       0.0000 |       0.0003 |       0.0003 |       0.0000 |       0.0000 |       0.0001 |       0.0001 |       0.0000 |       0.0000 |       0.0001 |       0.0001 |       0.0000 |       0.0000 |       0.0000 |       0.0000 |       0.0000 |       0.0000 |       0.0000 |       0.0002 |       0.0000 |       0.0498 |       0.0001 |       0.2010 |       0.0456 |       0.1945 |       0.1908 |       0.2244 |       0.1931 |       0.2242 |       0.2141 |       0.2483 |       0.2186 |       0.2530 |
dl2.wb_rate                                 0.0000 |       0.0000 |       0.0000 |       0.0000 |       0.0000 |       0.0000 |       0.0000 |       0.0000 |       0.0000 |       0.0000 |       0.0000 |       0.0000 |       0.0000 |       0.0000 |       0.0000 |       0.0000 |       0.0000 |       0.0000 |       0.0000 |       0.0000 |       0.0000 |       0.0000 |       0.0000 |       0.0000 |       0.0000 |       0.0000 |       0.0000 |       0.0000 |       0.0000 |       0.0001 |       0.0000 |       0.0498 |       0.0001 |       0.1989 |       0.0456 |       0.1906 |       0.1888 |       0.2139 |       0.1895 |       0.2129 |       0.2046 |       0.2308 |       0.2080 |       0.2343 |
dl2.inv_rate                                0.0000 |       0.0000 |       0.0000 |       0.0000 |       0.0000 |       0.0000 |       0.0000 |       0.0000 |       0.0000 |       0.0000 |       0.0000 |       0.0000 |       0.0000 |       0.0000 |       0.0000 |       0.0000 |       0.0000 |       0.0000 |       0.0000 |       0.0000 |       0.0000 |       0.0000 |       0.0000 |       0.0000 |       0.0000 |       0.0000 |       0.0000 |       0.0000 |       0.0000 |       0.0000 |       0.0000 |       0.0000 |       0.0000 |       0.0000 |       0.0000 |       0.0000 |       0.0000 |       0.0000 |       0.0000 |       0.0000 |       0.0000 |       0.0000 |       0.0000 |       0.0000 |
itlb.accesses                               985099 |       985099 |       985099 |       985099 |      2233726 |      2233726 |      2233726 |      2233726 |      4903130 |      4903130 |      4903130 |      4903130 |     10658540 |     10658540 |     10658540 |     10658540 |     22724012 |     22724012 |     22724012 |     22724012 |     49416134 |     49416134 |     49416134 |     49416134 |    101613220 |    101613220 |    101613220 |    101613220 |    217903806 |    217903806 |    217903806 |    217903806 |    463623767 |    463623767 |    463623767 |    463623767 |    996415270 |    996415270 |    996415270 |    996415270 |   2076755514 |   2076755514 |   2076755514 |   2076755514 |
itlb.hits                                   985089 |       985089 |       985089 |       985089 |      2233716 |      2233716 |      2233716 |      2233716 |      4903120 |      4903120 |      4903120 |      4903120 |     10658530 |     10658530 |     10658530 |     10658530 |     22724002 |     22724002 |     22724002 |     22724002 |     49416124 |     49416124 |     49416124 |     49416124 |    101613210 |    101613210 |    101613210 |    101613210 |    217903796 |    217903796 |    217903796 |    217903796 |    463623757 |    463623757 |    463623757 |    463623757 |    996415260 |    996415260 |    996415260 |    996415260 |   2076755504 |   2076755504 |   2076755504 |   2076755504 |
itlb.misses                                     10 |           10 |           10 |           10 |           10 |           10 |           10 |           10 |           10 |           10 |           10 |           10 |           10 |           10 |           10 |           10 |           10 |           10 |           10 |           10 |           10 |           10 |           10 |           10 |           10 |           10 |           10 |           10 |           10 |           10 |           10 |           10 |           10 |           10 |           10 |           10 |           10 |           10 |           10 |           10 |           10 |           10 |           10 |           10 |
itlb.replacements                                0 |            0 |            0 |            0 |            0 |            0 |            0 |            0 |            0 |            0 |            0 |            0 |            0 |            0 |            0 |            0 |            0 |            0 |            0 |            0 |            0 |            0 |            0 |            0 |            0 |            0 |            0 |            0 |            0 |            0 |            0 |            0 |            0 |            0 |            0 |            0 |            0 |            0 |            0 |            0 |            0 |            0 |            0 |            0 |
itlb.writebacks                                  0 |            0 |            0 |            0 |            0 |            0 |            0 |            0 |            0 |            0 |            0 |            0 |            0 |            0 |            0 |            0 |            0 |            0 |            0 |            0 |            0 |            0 |            0 |            0 |            0 |            0 |            0 |            0 |            0 |            0 |            0 |            0 |            0 |            0 |            0 |            0 |            0 |            0 |            0 |            0 |            0 |            0 |            0 |            0 |
itlb.invalidations                               0 |            0 |            0 |            0 |            0 |            0 |            0 |            0 |            0 |            0 |            0 |            0 |            0 |            0 |            0 |            0 |            0 |            0 |            0 |            0 |            0 |            0 |            0 |            0 |            0 |            0 |            0 |            0 |            0 |            0 |            0 |            0 |            0 |            0 |            0 |            0 |            0 |            0 |            0 |            0 |            0 |            0 |            0 |            0 |
itlb.miss_rate                              0.0000 |       0.0000 |       0.0000 |       0.0000 |       0.0000 |       0.0000 |       0.0000 |       0.0000 |       0.0000 |       0.0000 |       0.0000 |       0.0000 |       0.0000 |       0.0000 |       0.0000 |       0.0000 |       0.0000 |       0.0000 |       0.0000 |       0.0000 |       0.0000 |       0.0000 |       0.0000 |       0.0000 |       0.0000 |       0.0000 |       0.0000 |       0.0000 |       0.0000 |       0.0000 |       0.0000 |       0.0000 |       0.0000 |       0.0000 |       0.0000 |       0.0000 |       0.0000 |       0.0000 |       0.0000 |       0.0000 |       0.0000 |       0.0000 |       0.0000 |       0.0000 |
itlb.repl_rate                              0.0000 |       0.0000 |       0.0000 |       0.0000 |       0.0000 |       0.0000 |       0.0000 |       0.0000 |       0.0000 |       0.0000 |       0.0000 |       0.0000 |       0.0000 |       0.0000 |       0.0000 |       0.0000 |       0.0000 |       0.0000 |       0.0000 |       0.0000 |       0.0000 |       0.0000 |       0.0000 |       0.0000 |       0.0000 |       0.0000 |       0.0000 |       0.0000 |       0.0000 |       0.0000 |       0.0000 |       0.0000 |       0.0000 |       0.0000 |       0.0000 |       0.0000 |       0.0000 |       0.0000 |       0.0000 |       0.0000 |       0.0000 |       0.0000 |       0.0000 |       0.0000 |
itlb.wb_rate                                0.0000 |       0.0000 |       0.0000 |       0.0000 |       0.0000 |       0.0000 |       0.0000 |       0.0000 |       0.0000 |       0.0000 |       0.0000 |       0.0000 |       0.0000 |       0.0000 |       0.0000 |       0.0000 |       0.0000 |       0.0000 |       0.0000 |       0.0000 |       0.0000 |       0.0000 |       0.0000 |       0.0000 |       0.0000 |       0.0000 |       0.0000 |       0.0000 |       0.0000 |       0.0000 |       0.0000 |       0.0000 |       0.0000 |       0.0000 |       0.0000 |       0.0000 |       0.0000 |       0.0000 |       0.0000 |       0.0000 |       0.0000 |       0.0000 |       0.0000 |       0.0000 |
itlb.inv_rate                               0.0000 |       0.0000 |       0.0000 |       0.0000 |       0.0000 |       0.0000 |       0.0000 |       0.0000 |       0.0000 |       0.0000 |       0.0000 |       0.0000 |       0.0000 |       0.0000 |       0.0000 |       0.0000 |       0.0000 |       0.0000 |       0.0000 |       0.0000 |       0.0000 |       0.0000 |       0.0000 |       0.0000 |       0.0000 |       0.0000 |       0.0000 |       0.0000 |       0.0000 |       0.0000 |       0.0000 |       0.0000 |       0.0000 |       0.0000 |       0.0000 |       0.0000 |       0.0000 |       0.0000 |       0.0000 |       0.0000 |       0.0000 |       0.0000 |       0.0000 |       0.0000 |
dtlb.accesses                               202000 |       202000 |       202000 |       202000 |       449352 |       449352 |       449352 |       449352 |       976850 |       976850 |       976850 |       976850 |      2109479 |      2109479 |      2109479 |      2109479 |      4450802 |      4450802 |      4450802 |      4450802 |      9625841 |      9625841 |      9625841 |      9625841 |     19843603 |     19843603 |     19843603 |     19843603 |     42392937 |     42392937 |     42392937 |     42392937 |     89943551 |     89943551 |     89943551 |     89943551 |    192461000 |    192461000 |    192461000 |    192461000 |    401004017 |    401004017 |    401004017 |    401004017 |
dtlb.hits                                   201989 |       201989 |       201989 |       201989 |       449337 |       449337 |       449337 |       449337 |       976827 |       976827 |       976827 |       976827 |      2109440 |      2109440 |      2109440 |      2109440 |      4450731 |      4450731 |      4450731 |      4450731 |      9625638 |      9625638 |      9625638 |      9625638 |     19838330 |     19838330 |     19838330 |     19838330 |     42377958 |     42377958 |     42377958 |     42377958 |     89795951 |     89795951 |     89795951 |     89795951 |    192363096 |    192363096 |    192363096 |    192363096 |    400766939 |    400766939 |    400766939 |    400766939 |
dtlb.misses                                     11 |           11 |           11 |           11 |           15 |           15 |           15 |           15 |           23 |           23 |           23 |           23 |           39 |           39 |           39 |           39 |           71 |           71 |           71 |           71 |          203 |          203 |          203 |          203 |         5273 |         5273 |         5273 |         5273 |        14979 |        14979 |        14979 |        14979 |       147600 |       147600 |       147600 |       147600 |        97904 |        97904 |        97904 |        97904 |       237078 |       237078 |       237078 |       237078 |
dtlb.replacements                                0 |            0 |            0 |            0 |            0 |            0 |            0 |            0 |            0 |            0 |            0 |            0 |            0 |            0 |            0 |            0 |            0 |            0 |            0 |            0 |           75 |           75 |           75 |           75 |         5145 |         5145 |         5145 |         5145 |        14851 |        14851 |        14851 |        14851 |       147472 |       147472 |       147472 |       147472 |        97776 |        97776 |        97776 |        97776 |       236950 |       236950 |       236950 |       236950 |
dtlb.writebacks                                  0 |            0 |            0 |            0 |            0 |            0 |            0 |            0 |            0 |            0 |            0 |            0 |            0 |            0 |            0 |            0 |            0 |            0 |            0 |            0 |           73 |           73 |           73 |           73 |         5061 |         5061 |         5061 |         5061 |        14308 |        14308 |        14308 |        14308 |       126280 |       126280 |       126280 |       126280 |        91981 |        91981 |        91981 |        91981 |       221296 |       221296 |       221296 |       221296 |
dtlb.invalidations                               0 |            0 |            0 |            0 |            0 |            0 |            0 |            0 |            0 |            0 |            0 |            0 |            0 |            0 |            0 |            0 |            0 |            0 |            0 |            0 |            0 |            0 |            0 |            0 |            0 |            0 |            0 |            0 |            0 |            0 |            0 |            0 |            0 |            0 |            0 |            0 |            0 |            0 |            0 |            0 |            0 |            0 |            0 |            0 |
dtlb.miss_rate                              0.0001 |       0.0001 |       0.0001 |       0.0001 |       0.0000 |       0.0000 |       0.0000 |       0.0000 |       0.0000 |       0.0000 |       0.0000 |       0.0000 |       0.0000 |       0.0000 |       0.0000 |       0.0000 |       0.0000 |       0.0000 |       0.0000 |       0.0000 |       0.0000 |       0.0000 |       0.0000 |       0.0000 |       0.0003 |       0.0003 |       0.0003 |       0.0003 |       0.0004 |       0.0004 |       0.0004 |       0.0004 |       0.0016 |       0.0016 |       0.0016 |       0.0016 |       0.0005 |       0.0005 |       0.0005 |       0.0005 |       0.0006 |       0.0006 |       0.0006 |       0.0006 |
dtlb.repl_rate                              0.0000 |       0.0000 |       0.0000 |       0.0000 |       0.0000 |       0.0000 |       0.0000 |       0.0000 |       0.0000 |       0.0000 |       0.0000 |       0.0000 |       0.0000 |       0.0000 |       0.0000 |       0.0000 |       0.0000 |       0.0000 |       0.0000 |       0.0000 |       0.0000 |       0.0000 |       0.0000 |       0.0000 |       0.0003 |       0.0003 |       0.0003 |       0.0003 |       0.0004 |       0.0004 |       0.0004 |       0.0004 |       0.0016 |       0.0016 |       0.0016 |       0.0016 |       0.0005 |       0.0005 |       0.0005 |       0.0005 |       0.0006 |       0.0006 |       0.0006 |       0.0006 |
dtlb.wb_rate                                0.0000 |       0.0000 |       0.0000 |       0.0000 |       0.0000 |       0.0000 |       0.0000 |       0.0000 |       0.0000 |       0.0000 |       0.0000 |       0.0000 |       0.0000 |       0.0000 |       0.0000 |       0.0000 |       0.0000 |       0.0000 |       0.0000 |       0.0000 |       0.0000 |       0.0000 |       0.0000 |       0.0000 |       0.0003 |       0.0003 |       0.0003 |       0.0003 |       0.0003 |       0.0003 |       0.0003 |       0.0003 |       0.0014 |       0.0014 |       0.0014 |       0.0014 |       0.0005 |       0.0005 |       0.0005 |       0.0005 |       0.0006 |       0.0006 |       0.0006 |       0.0006 |
dtlb.inv_rate                               0.0000 |       0.0000 |       0.0000 |       0.0000 |       0.0000 |       0.0000 |       0.0000 |       0.0000 |       0.0000 |       0.0000 |       0.0000 |       0.0000 |       0.0000 |       0.0000 |       0.0000 |       0.0000 |       0.0000 |       0.0000 |       0.0000 |       0.0000 |       0.0000 |       0.0000 |       0.0000 |       0.0000 |       0.0000 |       0.0000 |       0.0000 |       0.0000 |       0.0000 |       0.0000 |       0.0000 |       0.0000 |       0.0000 |       0.0000 |       0.0000 |       0.0000 |       0.0000 |       0.0000 |       0.0000 |       0.0000 |       0.0000 |       0.0000 |       0.0000 |       0.0000 |
ld_text_base                            0x00400000 |   0x00400000 |   0x00400000 |   0x00400000 |   0x00400000 |   0x00400000 |   0x00400000 |   0x00400000 |   0x00400000 |   0x00400000 |   0x00400000 |   0x00400000 |   0x00400000 |   0x00400000 |   0x00400000 |   0x00400000 |   0x00400000 |   0x00400000 |   0x00400000 |   0x00400000 |   0x00400000 |   0x00400000 |   0x00400000 |   0x00400000 |   0x00400000 |   0x00400000 |   0x00400000 |   0x00400000 |   0x00400000 |   0x00400000 |   0x00400000 |   0x00400000 |   0x00400000 |   0x00400000 |   0x00400000 |   0x00400000 |   0x00400000 |   0x00400000 |   0x00400000 |   0x00400000 |   0x00400000 |   0x00400000 |   0x00400000 |   0x00400000 |
ld_text_size                                 71456 |        71456 |        71456 |        71456 |        71488 |        71488 |        71488 |        71488 |        71504 |        71504 |        71504 |        71504 |        71520 |        71520 |        71520 |        71520 |        71520 |        71520 |        71520 |        71520 |        71520 |        71520 |        71520 |        71520 |        71520 |        71520 |        71520 |        71520 |        71520 |        71520 |        71520 |        71520 |        71520 |        71520 |        71520 |        71520 |        71520 |        71520 |        71520 |        71520 |        71520 |        71520 |        71520 |        71520 |
ld_data_base                            0x10000000 |   0x10000000 |   0x10000000 |   0x10000000 |   0x10000000 |   0x10000000 |   0x10000000 |   0x10000000 |   0x10000000 |   0x10000000 |   0x10000000 |   0x10000000 |   0x10000000 |   0x10000000 |   0x10000000 |   0x10000000 |   0x10000000 |   0x10000000 |   0x10000000 |   0x10000000 |   0x10000000 |   0x10000000 |   0x10000000 |   0x10000000 |   0x10000000 |   0x10000000 |   0x10000000 |   0x10000000 |   0x10000000 |   0x10000000 |   0x10000000 |   0x10000000 |   0x10000000 |   0x10000000 |   0x10000000 |   0x10000000 |   0x10000000 |   0x10000000 |   0x10000000 |   0x10000000 |   0x10000000 |   0x10000000 |   0x10000000 |   0x10000000 |
ld_data_size                                  8192 |         8192 |         8192 |         8192 |         8192 |         8192 |         8192 |         8192 |         8192 |         8192 |         8192 |         8192 |         8192 |         8192 |         8192 |         8192 |         8192 |         8192 |         8192 |         8192 |         8192 |         8192 |         8192 |         8192 |         8192 |         8192 |         8192 |         8192 |         8192 |         8192 |         8192 |         8192 |         8192 |         8192 |         8192 |         8192 |         8192 |         8192 |         8192 |         8192 |         8192 |         8192 |         8192 |         8192 |
ld_stack_base                           0x7fffc000 |   0x7fffc000 |   0x7fffc000 |   0x7fffc000 |   0x7fffc000 |   0x7fffc000 |   0x7fffc000 |   0x7fffc000 |   0x7fffc000 |   0x7fffc000 |   0x7fffc000 |   0x7fffc000 |   0x7fffc000 |   0x7fffc000 |   0x7fffc000 |   0x7fffc000 |   0x7fffc000 |   0x7fffc000 |   0x7fffc000 |   0x7fffc000 |   0x7fffc000 |   0x7fffc000 |   0x7fffc000 |   0x7fffc000 |   0x7fffc000 |   0x7fffc000 |   0x7fffc000 |   0x7fffc000 |   0x7fffc000 |   0x7fffc000 |   0x7fffc000 |   0x7fffc000 |   0x7fffc000 |   0x7fffc000 |   0x7fffc000 |   0x7fffc000 |   0x7fffc000 |   0x7fffc000 |   0x7fffc000 |   0x7fffc000 |   0x7fffc000 |   0x7fffc000 |   0x7fffc000 |   0x7fffc000 |
ld_stack_size                                16384 |        16384 |        16384 |        16384 |        16384 |        16384 |        16384 |        16384 |        16384 |        16384 |        16384 |        16384 |        16384 |        16384 |        16384 |        16384 |        16384 |        16384 |        16384 |        16384 |        16384 |        16384 |        16384 |        16384 |        16384 |        16384 |        16384 |        16384 |        16384 |        16384 |        16384 |        16384 |        16384 |        16384 |        16384 |        16384 |        16384 |        16384 |        16384 |        16384 |        16384 |        16384 |        16384 |        16384 |
ld_prog_entry                           0x00400140 |   0x00400140 |   0x00400140 |   0x00400140 |   0x00400140 |   0x00400140 |   0x00400140 |   0x00400140 |   0x00400140 |   0x00400140 |   0x00400140 |   0x00400140 |   0x00400140 |   0x00400140 |   0x00400140 |   0x00400140 |   0x00400140 |   0x00400140 |   0x00400140 |   0x00400140 |   0x00400140 |   0x00400140 |   0x00400140 |   0x00400140 |   0x00400140 |   0x00400140 |   0x00400140 |   0x00400140 |   0x00400140 |   0x00400140 |   0x00400140 |   0x00400140 |   0x00400140 |   0x00400140 |   0x00400140 |   0x00400140 |   0x00400140 |   0x00400140 |   0x00400140 |   0x00400140 |   0x00400140 |   0x00400140 |   0x00400140 |   0x00400140 |
ld_environ_base                         0x7fff8000 |   0x7fff8000 |   0x7fff8000 |   0x7fff8000 |   0x7fff8000 |   0x7fff8000 |   0x7fff8000 |   0x7fff8000 |   0x7fff8000 |   0x7fff8000 |   0x7fff8000 |   0x7fff8000 |   0x7fff8000 |   0x7fff8000 |   0x7fff8000 |   0x7fff8000 |   0x7fff8000 |   0x7fff8000 |   0x7fff8000 |   0x7fff8000 |   0x7fff8000 |   0x7fff8000 |   0x7fff8000 |   0x7fff8000 |   0x7fff8000 |   0x7fff8000 |   0x7fff8000 |   0x7fff8000 |   0x7fff8000 |   0x7fff8000 |   0x7fff8000 |   0x7fff8000 |   0x7fff8000 |   0x7fff8000 |   0x7fff8000 |   0x7fff8000 |   0x7fff8000 |   0x7fff8000 |   0x7fff8000 |   0x7fff8000 |   0x7fff8000 |   0x7fff8000 |   0x7fff8000 |   0x7fff8000 |
ld_target_big_endian                             0 |            0 |            0 |            0 |            0 |            0 |            0 |            0 |            0 |            0 |            0 |            0 |            0 |            0 |            0 |            0 |            0 |            0 |            0 |            0 |            0 |            0 |            0 |            0 |            0 |            0 |            0 |            0 |            0 |            0 |            0 |            0 |            0 |            0 |            0 |            0 |            0 |            0 |            0 |            0 |            0 |            0 |            0 |            0 |
mem.page_count                                  29 |           29 |           29 |           29 |           33 |           33 |           33 |           33 |           41 |           41 |           41 |           41 |           57 |           57 |           57 |           57 |           89 |           89 |           89 |           89 |          153 |          153 |          153 |          153 |          281 |          281 |          281 |          281 |          537 |          537 |          537 |          537 |         1049 |         1049 |         1049 |         1049 |         2073 |         2073 |         2073 |         2073 |         4121 |         4121 |         4121 |         4121 |
mem.page_mem                                  116k |         116k |         116k |         116k |         132k |         132k |         132k |         132k |         164k |         164k |         164k |         164k |         228k |         228k |         228k |         228k |         356k |         356k |         356k |         356k |         612k |         612k |         612k |         612k |        1124k |        1124k |        1124k |        1124k |        2148k |        2148k |        2148k |        2148k |        4196k |        4196k |        4196k |        4196k |        8292k |        8292k |        8292k |        8292k |       16484k |       16484k |       16484k |       16484k |
mem.ptab_misses                                 29 |           29 |           29 |           29 |           33 |           33 |           33 |           33 |           41 |           41 |           41 |           41 |           57 |           57 |           57 |           57 |           89 |           89 |           89 |           89 |          153 |          153 |          153 |          153 |          281 |          281 |          281 |          281 |          537 |          537 |          537 |          537 |         1049 |         1049 |         1049 |         1049 |         2073 |         2073 |         2073 |         2073 |         4121 |         4121 |         4121 |         4121 |
mem.ptab_accesses                          4787712 |      4787712 |      4787712 |      4787712 |     10277116 |     10277116 |     10277116 |     10277116 |     22009824 |     22009824 |     22009824 |     22009824 |     47296818 |     47296818 |     47296818 |     47296818 |    100241352 |    100241352 |    100241352 |    100241352 |    217359918 |    217359918 |    217359918 |    217359918 |    446583786 |    446583786 |    446583786 |    446583786 |    956844798 |    956844798 |    956844798 |    956844798 |   2034825870 |   2034825870 |   2034825870 |   2034825870 |   4371026780 |   4371026780 |   4371026780 |   4371026780 |   9109473790 |   9109473790 |   9109473790 |   9109473790 |
mem.ptab_miss_rate                          0.0000 |       0.0000 |       0.0000 |       0.0000 |       0.0000 |       0.0000 |       0.0000 |       0.0000 |       0.0000 |       0.0000 |       0.0000 |       0.0000 |       0.0000 |       0.0000 |       0.0000 |       0.0000 |       0.0000 |       0.0000 |       0.0000 |       0.0000 |       0.0000 |       0.0000 |       0.0000 |       0.0000 |       0.0000 |       0.0000 |       0.0000 |       0.0000 |       0.0000 |       0.0000 |       0.0000 |       0.0000 |       0.0000 |       0.0000 |       0.0000 |       0.0000 |       0.0000 |       0.0000 |       0.0000 |       0.0000 |       0.0000 |       0.0000 |       0.0000 |       0.0000 |
-------------------------------------------------------------------------------------------------
sim-bpred                                     4096 |         4096 |         4096 |         4096 |         4096 |         4096 |         4096 |         8192 |         8192 |         8192 |         8192 |         8192 |         8192 |         8192 |        16384 |        16384 |        16384 |        16384 |        16384 |        16384 |        16384 |        32768 |        32768 |        32768 |        32768 |        32768 |        32768 |        32768 |        65536 |        65536 |        65536 |        65536 |        65536 |        65536 |        65536 |       131072 |       131072 |       131072 |       131072 |       131072 |       131072 |       131072 |       262144 |       262144 |       262144 |       262144 |       262144 |       262144 |       262144 |       524288 |       524288 |       524288 |       524288 |       524288 |       524288 |       524288 |      1048576 |      1048576 |      1048576 |      1048576 |      1048576 |      1048576 |      1048576 |      2097152 |      2097152 |      2097152 |      2097152 |      2097152 |      2097152 |      2097152 |      4194304 |      4194304 |      4194304 |      4194304 |      4194304 |      4194304 |      4194304 |
-bpred bimod -bpred:bimod 512
-bpred bimod -bpred:bimod 1024
-bpred bimod -bpred:bimod 2048
-bpred 2lev -bpred:2lev 1 512 10 1
-bpred 2lev -bpred:2lev 1 1024 10 1
-bpred 2lev -bpred:2lev 1 2048 10 1
-bpred 2lev -bpred:2lev 1 4096 10 1
-------------------------------------------------------------------------------------------------
sim_num_insn                                985099 |       985099 |       985099 |       985099 |       985099 |       985099 |       985099 |      2233726 |      2233726 |      2233726 |      2233726 |      2233726 |      2233726 |      2233726 |      4903130 |      4903130 |      4903130 |      4903130 |      4903130 |      4903130 |      4903130 |     10658540 |     10658540 |     10658540 |     10658540 |     10658540 |     10658540 |     10658540 |     22724012 |     22724012 |     22724012 |     22724012 |     22724012 |     22724012 |     22724012 |     49416134 |     49416134 |     49416134 |     49416134 |     49416134 |     49416134 |     49416134 |    101613220 |    101613220 |    101613220 |    101613220 |    101613220 |    101613220 |    101613220 |    217903806 |    217903806 |    217903806 |    217903806 |    217903806 |    217903806 |    217903806 |    463623767 |    463623767 |    463623767 |    463623767 |    463623767 |    463623767 |    463623767 |    996415270 |    996415270 |    996415270 |    996415270 |    996415270 |    996415270 |    996415270 |   2076755514 |   2076755514 |   2076755514 |   2076755514 |   2076755514 |   2076755514 |   2076755514 |
sim_num_refs                                185534 |       185534 |       185534 |       185534 |       185534 |       185534 |       185534 |       416502 |       416502 |       416502 |       416502 |       416502 |       416502 |       416502 |       911232 |       911232 |       911232 |       911232 |       911232 |       911232 |       911232 |      1978325 |      1978325 |      1978325 |      1978325 |      1978325 |      1978325 |      1978325 |      4188576 |      4188576 |      4188576 |      4188576 |      4188576 |      4188576 |      4188576 |      9101471 |      9101471 |      9101471 |      9101471 |      9101471 |      9101471 |      9101471 |     18794945 |     18794945 |     18794945 |     18794945 |     18794945 |     18794945 |     18794945 |     40295703 |     40295703 |     40295703 |     40295703 |     40295703 |     40295703 |     40295703 |     85749165 |     85749165 |     85749165 |     85749165 |     85749165 |     85749165 |     85749165 |    184072310 |    184072310 |    184072310 |    184072310 |    184072310 |    184072310 |    184072310 |    384226719 |    384226719 |    384226719 |    384226719 |    384226719 |    384226719 |    384226719 |
sim_elapsed_time                                 1 |            1 |            1 |            1 |            1 |            1 |            1 |            1 |            1 |            1 |            1 |            1 |            1 |            1 |            1 |            1 |            1 |            1 |            1 |            1 |            1 |            1 |            2 |            1 |            1 |            2 |            1 |            1 |            3 |            3 |            2 |            2 |            3 |            3 |            3 |            6 |            6 |            6 |            6 |            6 |            6 |            6 |           13 |           12 |           12 |           13 |           12 |           12 |           13 |           26 |           27 |           26 |           26 |           26 |           27 |           26 |           56 |           55 |           56 |           57 |           56 |           57 |           56 |          120 |          119 |          120 |          123 |          122 |          121 |          122 |          250 |          248 |          250 |          255 |          253 |          253 |          253 |
sim_inst_rate                          985099.0000 |  985099.0000 |  985099.0000 |  985099.0000 |  985099.0000 |  985099.0000 |  985099.0000 | 2233726.0000 | 2233726.0000 | 2233726.0000 | 2233726.0000 | 2233726.0000 | 2233726.0000 | 2233726.0000 | 4903130.0000 | 4903130.0000 | 4903130.0000 | 4903130.0000 | 4903130.0000 | 4903130.0000 | 4903130.0000 |10658540.0000 | 5329270.0000 |10658540.0000 |10658540.0000 | 5329270.0000 |10658540.0000 |10658540.0000 | 7574670.6667 | 7574670.6667 |11362006.0000 |11362006.0000 | 7574670.6667 | 7574670.6667 | 7574670.6667 | 8236022.3333 | 8236022.3333 | 8236022.3333 | 8236022.3333 | 8236022.3333 | 8236022.3333 | 8236022.3333 | 7816401.5385 | 8467768.3333 | 8467768.3333 | 7816401.5385 | 8467768.3333 | 8467768.3333 | 7816401.5385 | 8380915.6154 | 8070511.3333 | 8380915.6154 | 8380915.6154 | 8380915.6154 | 8070511.3333 | 8380915.6154 | 8278995.8393 | 8429523.0364 | 8278995.8393 | 8133750.2982 | 8278995.8393 | 8133750.2982 | 8278995.8393 | 8303460.5833 | 8373237.5630 | 8303460.5833 | 8100937.1545 | 8167338.2787 | 8234836.9421 | 8167338.2787 | 8307022.0560 | 8374014.1694 | 8307022.0560 | 8144139.2706 | 8208519.8182 | 8208519.8182 | 8208519.8182 |
sim_num_branches                            163902 |       163902 |       163902 |       163902 |       163902 |       163902 |       163902 |       372007 |       372007 |       372007 |       372007 |       372007 |       372007 |       372007 |       816906 |       816906 |       816906 |       816906 |       816906 |       816906 |       816906 |      1776143 |      1776143 |      1776143 |      1776143 |      1776143 |      1776143 |      1776143 |      3787055 |      3787055 |      3787055 |      3787055 |      3787055 |      3787055 |      3787055 |      8235742 |      8235742 |      8235742 |      8235742 |      8235742 |      8235742 |      8235742 |     16935258 |     16935258 |     16935258 |     16935258 |     16935258 |     16935258 |     16935258 |     36317021 |     36317021 |     36317021 |     36317021 |     36317021 |     36317021 |     36317021 |     77270347 |     77270347 |     77270347 |     77270347 |     77270347 |     77270347 |     77270347 |    166068933 |    166068933 |    166068933 |    166068933 |    166068933 |    166068933 |    166068933 |    346125638 |    346125638 |    346125638 |    346125638 |    346125638 |    346125638 |    346125638 |
sim_IPB                                     6.0103 |       6.0103 |       6.0103 |       6.0103 |       6.0103 |       6.0103 |       6.0103 |       6.0045 |       6.0045 |       6.0045 |       6.0045 |       6.0045 |       6.0045 |       6.0045 |       6.0021 |       6.0021 |       6.0021 |       6.0021 |       6.0021 |       6.0021 |       6.0021 |       6.0009 |       6.0009 |       6.0009 |       6.0009 |       6.0009 |       6.0009 |       6.0009 |       6.0004 |       6.0004 |       6.0004 |       6.0004 |       6.0004 |       6.0004 |       6.0004 |       6.0002 |       6.0002 |       6.0002 |       6.0002 |       6.0002 |       6.0002 |       6.0002 |       6.0001 |       6.0001 |       6.0001 |       6.0001 |       6.0001 |       6.0001 |       6.0001 |       6.0000 |       6.0000 |       6.0000 |       6.0000 |       6.0000 |       6.0000 |       6.0000 |       6.0000 |       6.0000 |       6.0000 |       6.0000 |       6.0000 |       6.0000 |       6.0000 |       6.0000 |       6.0000 |       6.0000 |       6.0000 |       6.0000 |       6.0000 |       6.0000 |       6.0000 |       6.0000 |       6.0000 |       6.0000 |       6.0000 |       6.0000 |       6.0000 |
bpred_bimod.lookups                         163902 |       163902 |       163902 |xxxxxxxxxxxxx |xxxxxxxxxxxxx |xxxxxxxxxxxxx |xxxxxxxxxxxxx |       372007 |       372007 |       372007 |xxxxxxxxxxxxx |xxxxxxxxxxxxx |xxxxxxxxxxxxx |xxxxxxxxxxxxx |       816906 |       816906 |       816906 |xxxxxxxxxxxxx |xxxxxxxxxxxxx |xxxxxxxxxxxxx |xxxxxxxxxxxxx |      1776143 |      1776143 |      1776143 |xxxxxxxxxxxxx |xxxxxxxxxxxxx |xxxxxxxxxxxxx |xxxxxxxxxxxxx |      3787055 |      3787055 |      3787055 |xxxxxxxxxxxxx |xxxxxxxxxxxxx |xxxxxxxxxxxxx |xxxxxxxxxxxxx |      8235742 |      8235742 |      8235742 |xxxxxxxxxxxxx |xxxxxxxxxxxxx |xxxxxxxxxxxxx |xxxxxxxxxxxxx |     16935258 |     16935258 |     16935258 |xxxxxxxxxxxxx |xxxxxxxxxxxxx |xxxxxxxxxxxxx |xxxxxxxxxxxxx |     36317021 |     36317021 |     36317021 |xxxxxxxxxxxxx |xxxxxxxxxxxxx |xxxxxxxxxxxxx |xxxxxxxxxxxxx |     77270347 |     77270347 |     77270347 |xxxxxxxxxxxxx |xxxxxxxxxxxxx |xxxxxxxxxxxxx |xxxxxxxxxxxxx |    166068933 |    166068933 |    166068933 |xxxxxxxxxxxxx |xxxxxxxxxxxxx |xxxxxxxxxxxxx |xxxxxxxxxxxxx |    346125638 |    346125638 |    346125638 |
bpred_bimod.updates                         163902 |       163902 |       163902 |xxxxxxxxxxxxx |xxxxxxxxxxxxx |xxxxxxxxxxxxx |xxxxxxxxxxxxx |       372007 |       372007 |       372007 |xxxxxxxxxxxxx |xxxxxxxxxxxxx |xxxxxxxxxxxxx |xxxxxxxxxxxxx |       816906 |       816906 |       816906 |xxxxxxxxxxxxx |xxxxxxxxxxxxx |xxxxxxxxxxxxx |xxxxxxxxxxxxx |      1776143 |      1776143 |      1776143 |xxxxxxxxxxxxx |xxxxxxxxxxxxx |xxxxxxxxxxxxx |xxxxxxxxxxxxx |      3787055 |      3787055 |      3787055 |xxxxxxxxxxxxx |xxxxxxxxxxxxx |xxxxxxxxxxxxx |xxxxxxxxxxxxx |      8235742 |      8235742 |      8235742 |xxxxxxxxxxxxx |xxxxxxxxxxxxx |xxxxxxxxxxxxx |xxxxxxxxxxxxx |     16935258 |     16935258 |     16935258 |xxxxxxxxxxxxx |xxxxxxxxxxxxx |xxxxxxxxxxxxx |xxxxxxxxxxxxx |     36317021 |     36317021 |     36317021 |xxxxxxxxxxxxx |xxxxxxxxxxxxx |xxxxxxxxxxxxx |xxxxxxxxxxxxx |     77270347 |     77270347 |     77270347 |xxxxxxxxxxxxx |xxxxxxxxxxxxx |xxxxxxxxxxxxx |xxxxxxxxxxxxx |    166068933 |    166068933 |    166068933 |xxxxxxxxxxxxx |xxxxxxxxxxxxx |xxxxxxxxxxxxx |xxxxxxxxxxxxx |    346125638 |    346125638 |    346125638 |
bpred_bimod.addr_hits                       127178 |       127181 |       127182 |xxxxxxxxxxxxx |xxxxxxxxxxxxx |xxxxxxxxxxxxx |xxxxxxxxxxxxx |       292941 |       292944 |       292944 |xxxxxxxxxxxxx |xxxxxxxxxxxxx |xxxxxxxxxxxxx |xxxxxxxxxxxxx |       637003 |       637006 |       637007 |xxxxxxxxxxxxx |xxxxxxxxxxxxx |xxxxxxxxxxxxx |xxxxxxxxxxxxx |      1386246 |      1386249 |      1386248 |xxxxxxxxxxxxx |xxxxxxxxxxxxx |xxxxxxxxxxxxx |xxxxxxxxxxxxx |      2984841 |      2984844 |      2984844 |xxxxxxxxxxxxx |xxxxxxxxxxxxx |xxxxxxxxxxxxx |xxxxxxxxxxxxx |      6482881 |      6482884 |      6482884 |xxxxxxxxxxxxx |xxxxxxxxxxxxx |xxxxxxxxxxxxx |xxxxxxxxxxxxx |     13138207 |     13138210 |     13138210 |xxxxxxxxxxxxx |xxxxxxxxxxxxx |xxxxxxxxxxxxx |xxxxxxxxxxxxx |     28131411 |     28131414 |     28131413 |xxxxxxxxxxxxx |xxxxxxxxxxxxx |xxxxxxxxxxxxx |xxxxxxxxxxxxx |     59630929 |     59630932 |     59630931 |xxxxxxxxxxxxx |xxxxxxxxxxxxx |xxxxxxxxxxxxx |xxxxxxxxxxxxx |    129044057 |    129044060 |    129044059 |xxxxxxxxxxxxx |xxxxxxxxxxxxx |xxxxxxxxxxxxx |xxxxxxxxxxxxx |    268800878 |    268800881 |    268800880 |
bpred_bimod.dir_hits                        127275 |       127276 |       127276 |xxxxxxxxxxxxx |xxxxxxxxxxxxx |xxxxxxxxxxxxx |xxxxxxxxxxxxx |       293037 |       293039 |       293038 |xxxxxxxxxxxxx |xxxxxxxxxxxxx |xxxxxxxxxxxxx |xxxxxxxxxxxxx |       637099 |       637101 |       637101 |xxxxxxxxxxxxx |xxxxxxxxxxxxx |xxxxxxxxxxxxx |xxxxxxxxxxxxx |      1386340 |      1386342 |      1386341 |xxxxxxxxxxxxx |xxxxxxxxxxxxx |xxxxxxxxxxxxx |xxxxxxxxxxxxx |      2984934 |      2984936 |      2984936 |xxxxxxxxxxxxx |xxxxxxxxxxxxx |xxxxxxxxxxxxx |xxxxxxxxxxxxx |      6482976 |      6482978 |      6482978 |xxxxxxxxxxxxx |xxxxxxxxxxxxx |xxxxxxxxxxxxx |xxxxxxxxxxxxx |     13138303 |     13138305 |     13138305 |xxxxxxxxxxxxx |xxxxxxxxxxxxx |xxxxxxxxxxxxx |xxxxxxxxxxxxx |     28131507 |     28131509 |     28131508 |xxxxxxxxxxxxx |xxxxxxxxxxxxx |xxxxxxxxxxxxx |xxxxxxxxxxxxx |     59631024 |     59631026 |     59631025 |xxxxxxxxxxxxx |xxxxxxxxxxxxx |xxxxxxxxxxxxx |xxxxxxxxxxxxx |    129044153 |    129044155 |    129044154 |xxxxxxxxxxxxx |xxxxxxxxxxxxx |xxxxxxxxxxxxx |xxxxxxxxxxxxx |    268800972 |    268800974 |    268800973 |
bpred_bimod.misses                           36627 |        36626 |        36626 |xxxxxxxxxxxxx |xxxxxxxxxxxxx |xxxxxxxxxxxxx |xxxxxxxxxxxxx |        78970 |        78968 |        78969 |xxxxxxxxxxxxx |xxxxxxxxxxxxx |xxxxxxxxxxxxx |xxxxxxxxxxxxx |       179807 |       179805 |       179805 |xxxxxxxxxxxxx |xxxxxxxxxxxxx |xxxxxxxxxxxxx |xxxxxxxxxxxxx |       389803 |       389801 |       389802 |xxxxxxxxxxxxx |xxxxxxxxxxxxx |xxxxxxxxxxxxx |xxxxxxxxxxxxx |       802121 |       802119 |       802119 |xxxxxxxxxxxxx |xxxxxxxxxxxxx |xxxxxxxxxxxxx |xxxxxxxxxxxxx |      1752766 |      1752764 |      1752764 |xxxxxxxxxxxxx |xxxxxxxxxxxxx |xxxxxxxxxxxxx |xxxxxxxxxxxxx |      3796955 |      3796953 |      3796953 |xxxxxxxxxxxxx |xxxxxxxxxxxxx |xxxxxxxxxxxxx |xxxxxxxxxxxxx |      8185514 |      8185512 |      8185513 |xxxxxxxxxxxxx |xxxxxxxxxxxxx |xxxxxxxxxxxxx |xxxxxxxxxxxxx |     17639323 |     17639321 |     17639322 |xxxxxxxxxxxxx |xxxxxxxxxxxxx |xxxxxxxxxxxxx |xxxxxxxxxxxxx |     37024780 |     37024778 |     37024779 |xxxxxxxxxxxxx |xxxxxxxxxxxxx |xxxxxxxxxxxxx |xxxxxxxxxxxxx |     77324666 |     77324664 |     77324665 |
bpred_bimod.jr_hits                             57 |           57 |           57 |xxxxxxxxxxxxx |xxxxxxxxxxxxx |xxxxxxxxxxxxx |xxxxxxxxxxxxx |           57 |           57 |           57 |xxxxxxxxxxxxx |xxxxxxxxxxxxx |xxxxxxxxxxxxx |xxxxxxxxxxxxx |           57 |           57 |           57 |xxxxxxxxxxxxx |xxxxxxxxxxxxx |xxxxxxxxxxxxx |xxxxxxxxxxxxx |           57 |           57 |           57 |xxxxxxxxxxxxx |xxxxxxxxxxxxx |xxxxxxxxxxxxx |xxxxxxxxxxxxx |           57 |           57 |           57 |xxxxxxxxxxxxx |xxxxxxxxxxxxx |xxxxxxxxxxxxx |xxxxxxxxxxxxx |           57 |           57 |           57 |xxxxxxxxxxxxx |xxxxxxxxxxxxx |xxxxxxxxxxxxx |xxxxxxxxxxxxx |           57 |           57 |           57 |xxxxxxxxxxxxx |xxxxxxxxxxxxx |xxxxxxxxxxxxx |xxxxxxxxxxxxx |           57 |           57 |           57 |xxxxxxxxxxxxx |xxxxxxxxxxxxx |xxxxxxxxxxxxx |xxxxxxxxxxxxx |           57 |           57 |           57 |xxxxxxxxxxxxx |xxxxxxxxxxxxx |xxxxxxxxxxxxx |xxxxxxxxxxxxx |           57 |           57 |           57 |xxxxxxxxxxxxx |xxxxxxxxxxxxx |xxxxxxxxxxxxx |xxxxxxxxxxxxx |           57 |           57 |           57 |
bpred_bimod.jr_seen                             58 |           58 |           58 |xxxxxxxxxxxxx |xxxxxxxxxxxxx |xxxxxxxxxxxxx |xxxxxxxxxxxxx |           58 |           58 |           58 |xxxxxxxxxxxxx |xxxxxxxxxxxxx |xxxxxxxxxxxxx |xxxxxxxxxxxxx |           58 |           58 |           58 |xxxxxxxxxxxxx |xxxxxxxxxxxxx |xxxxxxxxxxxxx |xxxxxxxxxxxxx |           58 |           58 |           58 |xxxxxxxxxxxxx |xxxxxxxxxxxxx |xxxxxxxxxxxxx |xxxxxxxxxxxxx |           58 |           58 |           58 |xxxxxxxxxxxxx |xxxxxxxxxxxxx |xxxxxxxxxxxxx |xxxxxxxxxxxxx |           58 |           58 |           58 |xxxxxxxxxxxxx |xxxxxxxxxxxxx |xxxxxxxxxxxxx |xxxxxxxxxxxxx |           58 |           58 |           58 |xxxxxxxxxxxxx |xxxxxxxxxxxxx |xxxxxxxxxxxxx |xxxxxxxxxxxxx |           58 |           58 |           58 |xxxxxxxxxxxxx |xxxxxxxxxxxxx |xxxxxxxxxxxxx |xxxxxxxxxxxxx |           58 |           58 |           58 |xxxxxxxxxxxxx |xxxxxxxxxxxxx |xxxxxxxxxxxxx |xxxxxxxxxxxxx |           58 |           58 |           58 |xxxxxxxxxxxxx |xxxxxxxxxxxxx |xxxxxxxxxxxxx |xxxxxxxxxxxxx |           58 |           58 |           58 |
bpred_bimod.jr_non_ras_hits.PP                   0 |            0 |            0 |xxxxxxxxxxxxx |xxxxxxxxxxxxx |xxxxxxxxxxxxx |xxxxxxxxxxxxx |            0 |            0 |            0 |xxxxxxxxxxxxx |xxxxxxxxxxxxx |xxxxxxxxxxxxx |xxxxxxxxxxxxx |            0 |            0 |            0 |xxxxxxxxxxxxx |xxxxxxxxxxxxx |xxxxxxxxxxxxx |xxxxxxxxxxxxx |            0 |            0 |            0 |xxxxxxxxxxxxx |xxxxxxxxxxxxx |xxxxxxxxxxxxx |xxxxxxxxxxxxx |            0 |            0 |            0 |xxxxxxxxxxxxx |xxxxxxxxxxxxx |xxxxxxxxxxxxx |xxxxxxxxxxxxx |            0 |            0 |            0 |xxxxxxxxxxxxx |xxxxxxxxxxxxx |xxxxxxxxxxxxx |xxxxxxxxxxxxx |            0 |            0 |            0 |xxxxxxxxxxxxx |xxxxxxxxxxxxx |xxxxxxxxxxxxx |xxxxxxxxxxxxx |            0 |            0 |            0 |xxxxxxxxxxxxx |xxxxxxxxxxxxx |xxxxxxxxxxxxx |xxxxxxxxxxxxx |            0 |            0 |            0 |xxxxxxxxxxxxx |xxxxxxxxxxxxx |xxxxxxxxxxxxx |xxxxxxxxxxxxx |            0 |            0 |            0 |xxxxxxxxxxxxx |xxxxxxxxxxxxx |xxxxxxxxxxxxx |xxxxxxxxxxxxx |            0 |            0 |            0 |
bpred_bimod.jr_non_ras_seen.PP                   0 |            0 |            0 |xxxxxxxxxxxxx |xxxxxxxxxxxxx |xxxxxxxxxxxxx |xxxxxxxxxxxxx |            0 |            0 |            0 |xxxxxxxxxxxxx |xxxxxxxxxxxxx |xxxxxxxxxxxxx |xxxxxxxxxxxxx |            0 |            0 |            0 |xxxxxxxxxxxxx |xxxxxxxxxxxxx |xxxxxxxxxxxxx |xxxxxxxxxxxxx |            0 |            0 |            0 |xxxxxxxxxxxxx |xxxxxxxxxxxxx |xxxxxxxxxxxxx |xxxxxxxxxxxxx |            0 |            0 |            0 |xxxxxxxxxxxxx |xxxxxxxxxxxxx |xxxxxxxxxxxxx |xxxxxxxxxxxxx |            0 |            0 |            0 |xxxxxxxxxxxxx |xxxxxxxxxxxxx |xxxxxxxxxxxxx |xxxxxxxxxxxxx |            0 |            0 |            0 |xxxxxxxxxxxxx |xxxxxxxxxxxxx |xxxxxxxxxxxxx |xxxxxxxxxxxxx |            0 |            0 |            0 |xxxxxxxxxxxxx |xxxxxxxxxxxxx |xxxxxxxxxxxxx |xxxxxxxxxxxxx |            0 |            0 |            0 |xxxxxxxxxxxxx |xxxxxxxxxxxxx |xxxxxxxxxxxxx |xxxxxxxxxxxxx |            0 |            0 |            0 |xxxxxxxxxxxxx |xxxxxxxxxxxxx |xxxxxxxxxxxxx |xxxxxxxxxxxxx |            0 |            0 |            0 |
bpred_bimod.bpred_addr_rate                 0.7759 |       0.7760 |       0.7760 |xxxxxxxxxxxxx |xxxxxxxxxxxxx |xxxxxxxxxxxxx |xxxxxxxxxxxxx |       0.7875 |       0.7875 |       0.7875 |xxxxxxxxxxxxx |xxxxxxxxxxxxx |xxxxxxxxxxxxx |xxxxxxxxxxxxx |       0.7798 |       0.7798 |       0.7798 |xxxxxxxxxxxxx |xxxxxxxxxxxxx |xxxxxxxxxxxxx |xxxxxxxxxxxxx |       0.7805 |       0.7805 |       0.7805 |xxxxxxxxxxxxx |xxxxxxxxxxxxx |xxxxxxxxxxxxx |xxxxxxxxxxxxx |       0.7882 |       0.7882 |       0.7882 |xxxxxxxxxxxxx |xxxxxxxxxxxxx |xxxxxxxxxxxxx |xxxxxxxxxxxxx |       0.7872 |       0.7872 |       0.7872 |xxxxxxxxxxxxx |xxxxxxxxxxxxx |xxxxxxxxxxxxx |xxxxxxxxxxxxx |       0.7758 |       0.7758 |       0.7758 |xxxxxxxxxxxxx |xxxxxxxxxxxxx |xxxxxxxxxxxxx |xxxxxxxxxxxxx |       0.7746 |       0.7746 |       0.7746 |xxxxxxxxxxxxx |xxxxxxxxxxxxx |xxxxxxxxxxxxx |xxxxxxxxxxxxx |       0.7717 |       0.7717 |       0.7717 |xxxxxxxxxxxxx |xxxxxxxxxxxxx |xxxxxxxxxxxxx |xxxxxxxxxxxxx |       0.7771 |       0.7771 |       0.7771 |xxxxxxxxxxxxx |xxxxxxxxxxxxx |xxxxxxxxxxxxx |xxxxxxxxxxxxx |       0.7766 |       0.7766 |       0.7766 |
bpred_bimod.bpred_dir_rate                  0.7765 |       0.7765 |       0.7765 |xxxxxxxxxxxxx |xxxxxxxxxxxxx |xxxxxxxxxxxxx |xxxxxxxxxxxxx |       0.7877 |       0.7877 |       0.7877 |xxxxxxxxxxxxx |xxxxxxxxxxxxx |xxxxxxxxxxxxx |xxxxxxxxxxxxx |       0.7799 |       0.7799 |       0.7799 |xxxxxxxxxxxxx |xxxxxxxxxxxxx |xxxxxxxxxxxxx |xxxxxxxxxxxxx |       0.7805 |       0.7805 |       0.7805 |xxxxxxxxxxxxx |xxxxxxxxxxxxx |xxxxxxxxxxxxx |xxxxxxxxxxxxx |       0.7882 |       0.7882 |       0.7882 |xxxxxxxxxxxxx |xxxxxxxxxxxxx |xxxxxxxxxxxxx |xxxxxxxxxxxxx |       0.7872 |       0.7872 |       0.7872 |xxxxxxxxxxxxx |xxxxxxxxxxxxx |xxxxxxxxxxxxx |xxxxxxxxxxxxx |       0.7758 |       0.7758 |       0.7758 |xxxxxxxxxxxxx |xxxxxxxxxxxxx |xxxxxxxxxxxxx |xxxxxxxxxxxxx |       0.7746 |       0.7746 |       0.7746 |xxxxxxxxxxxxx |xxxxxxxxxxxxx |xxxxxxxxxxxxx |xxxxxxxxxxxxx |       0.7717 |       0.7717 |       0.7717 |xxxxxxxxxxxxx |xxxxxxxxxxxxx |xxxxxxxxxxxxx |xxxxxxxxxxxxx |       0.7771 |       0.7771 |       0.7771 |xxxxxxxxxxxxx |xxxxxxxxxxxxx |xxxxxxxxxxxxx |xxxxxxxxxxxxx |       0.7766 |       0.7766 |       0.7766 |
bpred_bimod.bpred_jr_rate                   0.9828 |       0.9828 |       0.9828 |xxxxxxxxxxxxx |xxxxxxxxxxxxx |xxxxxxxxxxxxx |xxxxxxxxxxxxx |       0.9828 |       0.9828 |       0.9828 |xxxxxxxxxxxxx |xxxxxxxxxxxxx |xxxxxxxxxxxxx |xxxxxxxxxxxxx |       0.9828 |       0.9828 |       0.9828 |xxxxxxxxxxxxx |xxxxxxxxxxxxx |xxxxxxxxxxxxx |xxxxxxxxxxxxx |       0.9828 |       0.9828 |       0.9828 |xxxxxxxxxxxxx |xxxxxxxxxxxxx |xxxxxxxxxxxxx |xxxxxxxxxxxxx |       0.9828 |       0.9828 |       0.9828 |xxxxxxxxxxxxx |xxxxxxxxxxxxx |xxxxxxxxxxxxx |xxxxxxxxxxxxx |       0.9828 |       0.9828 |       0.9828 |xxxxxxxxxxxxx |xxxxxxxxxxxxx |xxxxxxxxxxxxx |xxxxxxxxxxxxx |       0.9828 |       0.9828 |       0.9828 |xxxxxxxxxxxxx |xxxxxxxxxxxxx |xxxxxxxxxxxxx |xxxxxxxxxxxxx |       0.9828 |       0.9828 |       0.9828 |xxxxxxxxxxxxx |xxxxxxxxxxxxx |xxxxxxxxxxxxx |xxxxxxxxxxxxx |       0.9828 |       0.9828 |       0.9828 |xxxxxxxxxxxxx |xxxxxxxxxxxxx |xxxxxxxxxxxxx |xxxxxxxxxxxxx |       0.9828 |       0.9828 |       0.9828 |xxxxxxxxxxxxx |xxxxxxxxxxxxx |xxxxxxxxxxxxx |xxxxxxxxxxxxx |       0.9828 |       0.9828 |       0.9828 |
bpred_bimod.bpred_jr_non_ras_rate.PP       <error: |      <error: |      <error: |xxxxxxxxxxxxx |xxxxxxxxxxxxx |xxxxxxxxxxxxx |xxxxxxxxxxxxx |      <error: |      <error: |      <error: |xxxxxxxxxxxxx |xxxxxxxxxxxxx |xxxxxxxxxxxxx |xxxxxxxxxxxxx |      <error: |      <error: |      <error: |xxxxxxxxxxxxx |xxxxxxxxxxxxx |xxxxxxxxxxxxx |xxxxxxxxxxxxx |      <error: |      <error: |      <error: |xxxxxxxxxxxxx |xxxxxxxxxxxxx |xxxxxxxxxxxxx |xxxxxxxxxxxxx |      <error: |      <error: |      <error: |xxxxxxxxxxxxx |xxxxxxxxxxxxx |xxxxxxxxxxxxx |xxxxxxxxxxxxx |      <error: |      <error: |      <error: |xxxxxxxxxxxxx |xxxxxxxxxxxxx |xxxxxxxxxxxxx |xxxxxxxxxxxxx |      <error: |      <error: |      <error: |xxxxxxxxxxxxx |xxxxxxxxxxxxx |xxxxxxxxxxxxx |xxxxxxxxxxxxx |      <error: |      <error: |      <error: |xxxxxxxxxxxxx |xxxxxxxxxxxxx |xxxxxxxxxxxxx |xxxxxxxxxxxxx |      <error: |      <error: |      <error: |xxxxxxxxxxxxx |xxxxxxxxxxxxx |xxxxxxxxxxxxx |xxxxxxxxxxxxx |      <error: |      <error: |      <error: |xxxxxxxxxxxxx |xxxxxxxxxxxxx |xxxxxxxxxxxxx |xxxxxxxxxxxxx |      <error: |      <error: |      <error: |
bpred_bimod.retstack_pushes                     60 |           60 |           60 |xxxxxxxxxxxxx |xxxxxxxxxxxxx |xxxxxxxxxxxxx |xxxxxxxxxxxxx |           60 |           60 |           60 |xxxxxxxxxxxxx |xxxxxxxxxxxxx |xxxxxxxxxxxxx |xxxxxxxxxxxxx |           60 |           60 |           60 |xxxxxxxxxxxxx |xxxxxxxxxxxxx |xxxxxxxxxxxxx |xxxxxxxxxxxxx |           60 |           60 |           60 |xxxxxxxxxxxxx |xxxxxxxxxxxxx |xxxxxxxxxxxxx |xxxxxxxxxxxxx |           60 |           60 |           60 |xxxxxxxxxxxxx |xxxxxxxxxxxxx |xxxxxxxxxxxxx |xxxxxxxxxxxxx |           60 |           60 |           60 |xxxxxxxxxxxxx |xxxxxxxxxxxxx |xxxxxxxxxxxxx |xxxxxxxxxxxxx |           60 |           60 |           60 |xxxxxxxxxxxxx |xxxxxxxxxxxxx |xxxxxxxxxxxxx |xxxxxxxxxxxxx |           60 |           60 |           60 |xxxxxxxxxxxxx |xxxxxxxxxxxxx |xxxxxxxxxxxxx |xxxxxxxxxxxxx |           60 |           60 |           60 |xxxxxxxxxxxxx |xxxxxxxxxxxxx |xxxxxxxxxxxxx |xxxxxxxxxxxxx |           60 |           60 |           60 |xxxxxxxxxxxxx |xxxxxxxxxxxxx |xxxxxxxxxxxxx |xxxxxxxxxxxxx |           60 |           60 |           60 |
bpred_bimod.retstack_pops                       58 |           58 |           58 |xxxxxxxxxxxxx |xxxxxxxxxxxxx |xxxxxxxxxxxxx |xxxxxxxxxxxxx |           58 |           58 |           58 |xxxxxxxxxxxxx |xxxxxxxxxxxxx |xxxxxxxxxxxxx |xxxxxxxxxxxxx |           58 |           58 |           58 |xxxxxxxxxxxxx |xxxxxxxxxxxxx |xxxxxxxxxxxxx |xxxxxxxxxxxxx |           58 |           58 |           58 |xxxxxxxxxxxxx |xxxxxxxxxxxxx |xxxxxxxxxxxxx |xxxxxxxxxxxxx |           58 |           58 |           58 |xxxxxxxxxxxxx |xxxxxxxxxxxxx |xxxxxxxxxxxxx |xxxxxxxxxxxxx |           58 |           58 |           58 |xxxxxxxxxxxxx |xxxxxxxxxxxxx |xxxxxxxxxxxxx |xxxxxxxxxxxxx |           58 |           58 |           58 |xxxxxxxxxxxxx |xxxxxxxxxxxxx |xxxxxxxxxxxxx |xxxxxxxxxxxxx |           58 |           58 |           58 |xxxxxxxxxxxxx |xxxxxxxxxxxxx |xxxxxxxxxxxxx |xxxxxxxxxxxxx |           58 |           58 |           58 |xxxxxxxxxxxxx |xxxxxxxxxxxxx |xxxxxxxxxxxxx |xxxxxxxxxxxxx |           58 |           58 |           58 |xxxxxxxxxxxxx |xxxxxxxxxxxxx |xxxxxxxxxxxxx |xxxxxxxxxxxxx |           58 |           58 |           58 |
bpred_bimod.used_ras.PP                         58 |           58 |           58 |xxxxxxxxxxxxx |xxxxxxxxxxxxx |xxxxxxxxxxxxx |xxxxxxxxxxxxx |           58 |           58 |           58 |xxxxxxxxxxxxx |xxxxxxxxxxxxx |xxxxxxxxxxxxx |xxxxxxxxxxxxx |           58 |           58 |           58 |xxxxxxxxxxxxx |xxxxxxxxxxxxx |xxxxxxxxxxxxx |xxxxxxxxxxxxx |           58 |           58 |           58 |xxxxxxxxxxxxx |xxxxxxxxxxxxx |xxxxxxxxxxxxx |xxxxxxxxxxxxx |           58 |           58 |           58 |xxxxxxxxxxxxx |xxxxxxxxxxxxx |xxxxxxxxxxxxx |xxxxxxxxxxxxx |           58 |           58 |           58 |xxxxxxxxxxxxx |xxxxxxxxxxxxx |xxxxxxxxxxxxx |xxxxxxxxxxxxx |           58 |           58 |           58 |xxxxxxxxxxxxx |xxxxxxxxxxxxx |xxxxxxxxxxxxx |xxxxxxxxxxxxx |           58 |           58 |           58 |xxxxxxxxxxxxx |xxxxxxxxxxxxx |xxxxxxxxxxxxx |xxxxxxxxxxxxx |           58 |           58 |           58 |xxxxxxxxxxxxx |xxxxxxxxxxxxx |xxxxxxxxxxxxx |xxxxxxxxxxxxx |           58 |           58 |           58 |xxxxxxxxxxxxx |xxxxxxxxxxxxx |xxxxxxxxxxxxx |xxxxxxxxxxxxx |           58 |           58 |           58 |
bpred_bimod.ras_hits.PP                         57 |           57 |           57 |xxxxxxxxxxxxx |xxxxxxxxxxxxx |xxxxxxxxxxxxx |xxxxxxxxxxxxx |           57 |           57 |           57 |xxxxxxxxxxxxx |xxxxxxxxxxxxx |xxxxxxxxxxxxx |xxxxxxxxxxxxx |           57 |           57 |           57 |xxxxxxxxxxxxx |xxxxxxxxxxxxx |xxxxxxxxxxxxx |xxxxxxxxxxxxx |           57 |           57 |           57 |xxxxxxxxxxxxx |xxxxxxxxxxxxx |xxxxxxxxxxxxx |xxxxxxxxxxxxx |           57 |           57 |           57 |xxxxxxxxxxxxx |xxxxxxxxxxxxx |xxxxxxxxxxxxx |xxxxxxxxxxxxx |           57 |           57 |           57 |xxxxxxxxxxxxx |xxxxxxxxxxxxx |xxxxxxxxxxxxx |xxxxxxxxxxxxx |           57 |           57 |           57 |xxxxxxxxxxxxx |xxxxxxxxxxxxx |xxxxxxxxxxxxx |xxxxxxxxxxxxx |           57 |           57 |           57 |xxxxxxxxxxxxx |xxxxxxxxxxxxx |xxxxxxxxxxxxx |xxxxxxxxxxxxx |           57 |           57 |           57 |xxxxxxxxxxxxx |xxxxxxxxxxxxx |xxxxxxxxxxxxx |xxxxxxxxxxxxx |           57 |           57 |           57 |xxxxxxxxxxxxx |xxxxxxxxxxxxx |xxxxxxxxxxxxx |xxxxxxxxxxxxx |           57 |           57 |           57 |
bpred_bimod.ras_rate.PP                     0.9828 |       0.9828 |       0.9828 |xxxxxxxxxxxxx |xxxxxxxxxxxxx |xxxxxxxxxxxxx |xxxxxxxxxxxxx |       0.9828 |       0.9828 |       0.9828 |xxxxxxxxxxxxx |xxxxxxxxxxxxx |xxxxxxxxxxxxx |xxxxxxxxxxxxx |       0.9828 |       0.9828 |       0.9828 |xxxxxxxxxxxxx |xxxxxxxxxxxxx |xxxxxxxxxxxxx |xxxxxxxxxxxxx |       0.9828 |       0.9828 |       0.9828 |xxxxxxxxxxxxx |xxxxxxxxxxxxx |xxxxxxxxxxxxx |xxxxxxxxxxxxx |       0.9828 |       0.9828 |       0.9828 |xxxxxxxxxxxxx |xxxxxxxxxxxxx |xxxxxxxxxxxxx |xxxxxxxxxxxxx |       0.9828 |       0.9828 |       0.9828 |xxxxxxxxxxxxx |xxxxxxxxxxxxx |xxxxxxxxxxxxx |xxxxxxxxxxxxx |       0.9828 |       0.9828 |       0.9828 |xxxxxxxxxxxxx |xxxxxxxxxxxxx |xxxxxxxxxxxxx |xxxxxxxxxxxxx |       0.9828 |       0.9828 |       0.9828 |xxxxxxxxxxxxx |xxxxxxxxxxxxx |xxxxxxxxxxxxx |xxxxxxxxxxxxx |       0.9828 |       0.9828 |       0.9828 |xxxxxxxxxxxxx |xxxxxxxxxxxxx |xxxxxxxxxxxxx |xxxxxxxxxxxxx |       0.9828 |       0.9828 |       0.9828 |xxxxxxxxxxxxx |xxxxxxxxxxxxx |xxxxxxxxxxxxx |xxxxxxxxxxxxx |       0.9828 |       0.9828 |       0.9828 |
bpred_2lev.lookups                   xxxxxxxxxxxxx |xxxxxxxxxxxxx |xxxxxxxxxxxxx |       163902 |       163902 |       163902 |       163902 |xxxxxxxxxxxxx |xxxxxxxxxxxxx |xxxxxxxxxxxxx |       372007 |       372007 |       372007 |       372007 |xxxxxxxxxxxxx |xxxxxxxxxxxxx |xxxxxxxxxxxxx |       816906 |       816906 |       816906 |       816906 |xxxxxxxxxxxxx |xxxxxxxxxxxxx |xxxxxxxxxxxxx |      1776143 |      1776143 |      1776143 |      1776143 |xxxxxxxxxxxxx |xxxxxxxxxxxxx |xxxxxxxxxxxxx |      3787055 |      3787055 |      3787055 |      3787055 |xxxxxxxxxxxxx |xxxxxxxxxxxxx |xxxxxxxxxxxxx |      8235742 |      8235742 |      8235742 |      8235742 |xxxxxxxxxxxxx |xxxxxxxxxxxxx |xxxxxxxxxxxxx |     16935258 |     16935258 |     16935258 |     16935258 |xxxxxxxxxxxxx |xxxxxxxxxxxxx |xxxxxxxxxxxxx |     36317021 |     36317021 |     36317021 |     36317021 |xxxxxxxxxxxxx |xxxxxxxxxxxxx |xxxxxxxxxxxxx |     77270347 |     77270347 |     77270347 |     77270347 |xxxxxxxxxxxxx |xxxxxxxxxxxxx |xxxxxxxxxxxxx |    166068933 |    166068933 |    166068933 |    166068933 |xxxxxxxxxxxxx |xxxxxxxxxxxxx |xxxxxxxxxxxxx |    346125638 |    346125638 |    346125638 |    346125638 |
[...]
bpred_2lev.bpred_jr_non_ras_rate.PP  xxxxxxxxxxxxx |xxxxxxxxxxxxx |xxxxxxxxxxxxx |      <error: |      <error: |      <error: |      <error: |xxxxxxxxxxxxx |xxxxxxxxxxxxx |xxxxxxxxxxxxx |      <error: |      <error: |      <error: |      <error: |xxxxxxxxxxxxx |xxxxxxxxxxxxx |xxxxxxxxxxxxx |      <error: |      <error: |      <error: |      <error: |xxxxxxxxxxxxx |xxxxxxxxxxxxx |xxxxxxxxxxxxx |      <error: |      <error: |      <error: |      <error: |xxxxxxxxxxxxx |xxxxxxxxxxxxx |xxxxxxxxxxxxx |      <error: |      <error: |      <error: |      <error: |xxxxxxxxxxxxx |xxxxxxxxxxxxx |xxxxxxxxxxxxx |      <error: |      <error: |      <error: |      <error: |xxxxxxxxxxxxx |xxxxxxxxxxxxx |xxxxxxxxxxxxx |      <error: |      <error: |      <error: |      <error: |xxxxxxxxxxxxx |xxxxxxxxxxxxx |xxxxxxxxxxxxx |      <error: |      <error: |      <error: |      <error: |xxxxxxxxxxxxx |xxxxxxxxxxxxx |xxxxxxxxxxxxx |      <error: |      <error: |      <error: |      <error: |xxxxxxxxxxxxx |xxxxxxxxxxxxx |xxxxxxxxxxxxx |      <error: |      <error: |      <error: |      <error: |xxxxxxxxxxxxx |xxxxxxxxxxxxx |xxxxxxxxxxxxx |      <error: |      <error: |      <error: |      <error: |
bpred_2lev.retstack_pushes           xxxxxxxxxxxxx |xxxxxxxxxxxxx |xxxxxxxxxxxxx |           60 |           60 |           60 |           60 |xxxxxxxxxxxxx |xxxxxxxxxxxxx |xxxxxxxxxxxxx |           60 |           60 |           60 |           60 |xxxxxxxxxxxxx |xxxxxxxxxxxxx |xxxxxxxxxxxxx |           60 |           60 |           60 |           60 |xxxxxxxxxxxxx |xxxxxxxxxxxxx |xxxxxxxxxxxxx |           60 |           60 |           60 |           60 |xxxxxxxxxxxxx |xxxxxxxxxxxxx |xxxxxxxxxxxxx |           60 |           60 |           60 |           60 |xxxxxxxxxxxxx |xxxxxxxxxxxxx |xxxxxxxxxxxxx |           60 |           60 |           60 |           60 |xxxxxxxxxxxxx |xxxxxxxxxxxxx |xxxxxxxxxxxxx |           60 |           60 |           60 |           60 |xxxxxxxxxxxxx |xxxxxxxxxxxxx |xxxxxxxxxxxxx |           60 |           60 |           60 |           60 |xxxxxxxxxxxxx |xxxxxxxxxxxxx |xxxxxxxxxxxxx |           60 |           60 |           60 |           60 |xxxxxxxxxxxxx |xxxxxxxxxxxxx |xxxxxxxxxxxxx |           60 |           60 |           60 |           60 |xxxxxxxxxxxxx |xxxxxxxxxxxxx |xxxxxxxxxxxxx |           60 |           60 |           60 |           60 |
bpred_2lev.retstack_pops             xxxxxxxxxxxxx |xxxxxxxxxxxxx |xxxxxxxxxxxxx |           58 |           58 |           58 |           58 |xxxxxxxxxxxxx |xxxxxxxxxxxxx |xxxxxxxxxxxxx |           58 |           58 |           58 |           58 |xxxxxxxxxxxxx |xxxxxxxxxxxxx |xxxxxxxxxxxxx |           58 |           58 |           58 |           58 |xxxxxxxxxxxxx |xxxxxxxxxxxxx |xxxxxxxxxxxxx |           58 |           58 |           58 |           58 |xxxxxxxxxxxxx |xxxxxxxxxxxxx |xxxxxxxxxxxxx |           58 |           58 |           58 |           58 |xxxxxxxxxxxxx |xxxxxxxxxxxxx |xxxxxxxxxxxxx |           58 |           58 |           58 |           58 |xxxxxxxxxxxxx |xxxxxxxxxxxxx |xxxxxxxxxxxxx |           58 |           58 |           58 |           58 |xxxxxxxxxxxxx |xxxxxxxxxxxxx |xxxxxxxxxxxxx |           58 |           58 |           58 |           58 |xxxxxxxxxxxxx |xxxxxxxxxxxxx |xxxxxxxxxxxxx |           58 |           58 |           58 |           58 |xxxxxxxxxxxxx |xxxxxxxxxxxxx |xxxxxxxxxxxxx |           58 |           58 |           58 |           58 |xxxxxxxxxxxxx |xxxxxxxxxxxxx |xxxxxxxxxxxxx |           58 |           58 |           58 |           58 |
bpred_2lev.used_ras.PP               xxxxxxxxxxxxx |xxxxxxxxxxxxx |xxxxxxxxxxxxx |           58 |           58 |           58 |           58 |xxxxxxxxxxxxx |xxxxxxxxxxxxx |xxxxxxxxxxxxx |           58 |           58 |           58 |           58 |xxxxxxxxxxxxx |xxxxxxxxxxxxx |xxxxxxxxxxxxx |           58 |           58 |           58 |           58 |xxxxxxxxxxxxx |xxxxxxxxxxxxx |xxxxxxxxxxxxx |           58 |           58 |           58 |           58 |xxxxxxxxxxxxx |xxxxxxxxxxxxx |xxxxxxxxxxxxx |           58 |           58 |           58 |           58 |xxxxxxxxxxxxx |xxxxxxxxxxxxx |xxxxxxxxxxxxx |           58 |           58 |           58 |           58 |xxxxxxxxxxxxx |xxxxxxxxxxxxx |xxxxxxxxxxxxx |           58 |           58 |           58 |           58 |xxxxxxxxxxxxx |xxxxxxxxxxxxx |xxxxxxxxxxxxx |           58 |           58 |           58 |           58 |xxxxxxxxxxxxx |xxxxxxxxxxxxx |xxxxxxxxxxxxx |           58 |           58 |           58 |           58 |xxxxxxxxxxxxx |xxxxxxxxxxxxx |xxxxxxxxxxxxx |           58 |           58 |           58 |           58 |xxxxxxxxxxxxx |xxxxxxxxxxxxx |xxxxxxxxxxxxx |           58 |           58 |           58 |           58 |
bpred_2lev.ras_hits.PP               xxxxxxxxxxxxx |xxxxxxxxxxxxx |xxxxxxxxxxxxx |           57 |           57 |           57 |           57 |xxxxxxxxxxxxx |xxxxxxxxxxxxx |xxxxxxxxxxxxx |           57 |           57 |           57 |           57 |xxxxxxxxxxxxx |xxxxxxxxxxxxx |xxxxxxxxxxxxx |           57 |           57 |           57 |           57 |xxxxxxxxxxxxx |xxxxxxxxxxxxx |xxxxxxxxxxxxx |           57 |           57 |           57 |           57 |xxxxxxxxxxxxx |xxxxxxxxxxxxx |xxxxxxxxxxxxx |           57 |           57 |           57 |           57 |xxxxxxxxxxxxx |xxxxxxxxxxxxx |xxxxxxxxxxxxx |           57 |           57 |           57 |           57 |xxxxxxxxxxxxx |xxxxxxxxxxxxx |xxxxxxxxxxxxx |           57 |           57 |           57 |           57 |xxxxxxxxxxxxx |xxxxxxxxxxxxx |xxxxxxxxxxxxx |           57 |           57 |           57 |           57 |xxxxxxxxxxxxx |xxxxxxxxxxxxx |xxxxxxxxxxxxx |           57 |           57 |           57 |           57 |xxxxxxxxxxxxx |xxxxxxxxxxxxx |xxxxxxxxxxxxx |           57 |           57 |           57 |           57 |xxxxxxxxxxxxx |xxxxxxxxxxxxx |xxxxxxxxxxxxx |           57 |           57 |           57 |           57 |
bpred_2lev.ras_rate.PP               xxxxxxxxxxxxx |xxxxxxxxxxxxx |xxxxxxxxxxxxx |       0.9828 |       0.9828 |       0.9828 |       0.9828 |xxxxxxxxxxxxx |xxxxxxxxxxxxx |xxxxxxxxxxxxx |       0.9828 |       0.9828 |       0.9828 |       0.9828 |xxxxxxxxxxxxx |xxxxxxxxxxxxx |xxxxxxxxxxxxx |       0.9828 |       0.9828 |       0.9828 |       0.9828 |xxxxxxxxxxxxx |xxxxxxxxxxxxx |xxxxxxxxxxxxx |       0.9828 |       0.9828 |       0.9828 |       0.9828 |xxxxxxxxxxxxx |xxxxxxxxxxxxx |xxxxxxxxxxxxx |       0.9828 |       0.9828 |       0.9828 |       0.9828 |xxxxxxxxxxxxx |xxxxxxxxxxxxx |xxxxxxxxxxxxx |       0.9828 |       0.9828 |       0.9828 |       0.9828 |xxxxxxxxxxxxx |xxxxxxxxxxxxx |xxxxxxxxxxxxx |       0.9828 |       0.9828 |       0.9828 |       0.9828 |xxxxxxxxxxxxx |xxxxxxxxxxxxx |xxxxxxxxxxxxx |       0.9828 |       0.9828 |       0.9828 |       0.9828 |xxxxxxxxxxxxx |xxxxxxxxxxxxx |xxxxxxxxxxxxx |       0.9828 |       0.9828 |       0.9828 |       0.9828 |xxxxxxxxxxxxx |xxxxxxxxxxxxx |xxxxxxxxxxxxx |       0.9828 |       0.9828 |       0.9828 |       0.9828 |xxxxxxxxxxxxx |xxxxxxxxxxxxx |xxxxxxxxxxxxx |       0.9828 |       0.9828 |       0.9828 |       0.9828 |

Command list: 
	sslittle-na-sstrix-gcc -Wall -O3 -funroll-loops -finline-functions  -DRANDOM_SIZE=4096 -DOFFSET=5 -DSORT=shellsort sorts/shellsort556842481.c simpleMain.c -o shellsort1641104062
	sim-cache -cache:dl1 dl1:256:32:1:l -cache:dl2 dl2:131072:32:1:l -cache:il1 il1:256:32:1:l -cache:il2 dl2 shellsort1641104062
	sim-cache -cache:dl1 dl1:256:32:1:l -cache:dl2 dl2:65536:32:1:l -cache:il1 il1:256:32:1:l -cache:il2 dl2 shellsort1641104062
	sim-cache -cache:dl1 dl1:1:32:256:l -cache:dl2 dl2:1:32:131072:l -cache:il1 il1:1:32:256:l -cache:il2 dl2 shellsort1641104062
	sim-cache -cache:dl1 dl1:1:32:256:l -cache:dl2 dl2:1:32:65536:l -cache:il1 il1:1:32:256:l -cache:il2 dl2 shellsort1641104062
	sim-bpred -bpred bimod -bpred:bimod 512 shellsort1641104062
	sim-bpred -bpred bimod -bpred:bimod 1024 shellsort1641104062
	sim-bpred -bpred bimod -bpred:bimod 2048 shellsort1641104062
	sim-bpred -bpred 2lev -bpred:2lev 1 512 10 1 shellsort1641104062
	sim-bpred -bpred 2lev -bpred:2lev 1 1024 10 1 shellsort1641104062
	sim-bpred -bpred 2lev -bpred:2lev 1 2048 10 1 shellsort1641104062
	sim-bpred -bpred 2lev -bpred:2lev 1 4096 10 1 shellsort1641104062
	sslittle-na-sstrix-gcc -Wall -O3 -funroll-loops -finline-functions  -DRANDOM_SIZE=8192 -DOFFSET=5 -DSORT=shellsort sorts/shellsort556842481.c simpleMain.c -o shellsort1641104062
	sim-cache -cache:dl1 dl1:256:32:1:l -cache:dl2 dl2:131072:32:1:l -cache:il1 il1:256:32:1:l -cache:il2 dl2 shellsort1641104062
	sim-cache -cache:dl1 dl1:256:32:1:l -cache:dl2 dl2:65536:32:1:l -cache:il1 il1:256:32:1:l -cache:il2 dl2 shellsort1641104062
	sim-cache -cache:dl1 dl1:1:32:256:l -cache:dl2 dl2:1:32:131072:l -cache:il1 il1:1:32:256:l -cache:il2 dl2 shellsort1641104062
	sim-cache -cache:dl1 dl1:1:32:256:l -cache:dl2 dl2:1:32:65536:l -cache:il1 il1:1:32:256:l -cache:il2 dl2 shellsort1641104062
	sim-bpred -bpred bimod -bpred:bimod 512 shellsort1641104062
	sim-bpred -bpred bimod -bpred:bimod 1024 shellsort1641104062
	sim-bpred -bpred bimod -bpred:bimod 2048 shellsort1641104062
	sim-bpred -bpred 2lev -bpred:2lev 1 512 10 1 shellsort1641104062
	sim-bpred -bpred 2lev -bpred:2lev 1 1024 10 1 shellsort1641104062
	sim-bpred -bpred 2lev -bpred:2lev 1 2048 10 1 shellsort1641104062
	sim-bpred -bpred 2lev -bpred:2lev 1 4096 10 1 shellsort1641104062
	sslittle-na-sstrix-gcc -Wall -O3 -funroll-loops -finline-functions  -DRANDOM_SIZE=16384 -DOFFSET=5 -DSORT=shellsort sorts/shellsort556842481.c simpleMain.c -o shellsort1641104062
	sim-cache -cache:dl1 dl1:256:32:1:l -cache:dl2 dl2:131072:32:1:l -cache:il1 il1:256:32:1:l -cache:il2 dl2 shellsort1641104062
	sim-cache -cache:dl1 dl1:256:32:1:l -cache:dl2 dl2:65536:32:1:l -cache:il1 il1:256:32:1:l -cache:il2 dl2 shellsort1641104062
	sim-cache -cache:dl1 dl1:1:32:256:l -cache:dl2 dl2:1:32:131072:l -cache:il1 il1:1:32:256:l -cache:il2 dl2 shellsort1641104062
	sim-cache -cache:dl1 dl1:1:32:256:l -cache:dl2 dl2:1:32:65536:l -cache:il1 il1:1:32:256:l -cache:il2 dl2 shellsort1641104062
	sim-bpred -bpred bimod -bpred:bimod 512 shellsort1641104062
	sim-bpred -bpred bimod -bpred:bimod 1024 shellsort1641104062
	sim-bpred -bpred bimod -bpred:bimod 2048 shellsort1641104062
	sim-bpred -bpred 2lev -bpred:2lev 1 512 10 1 shellsort1641104062
	sim-bpred -bpred 2lev -bpred:2lev 1 1024 10 1 shellsort1641104062
	sim-bpred -bpred 2lev -bpred:2lev 1 2048 10 1 shellsort1641104062
	sim-bpred -bpred 2lev -bpred:2lev 1 4096 10 1 shellsort1641104062
	sslittle-na-sstrix-gcc -Wall -O3 -funroll-loops -finline-functions  -DRANDOM_SIZE=32768 -DOFFSET=5 -DSORT=shellsort sorts/shellsort556842481.c simpleMain.c -o shellsort1641104062
	sim-cache -cache:dl1 dl1:256:32:1:l -cache:dl2 dl2:131072:32:1:l -cache:il1 il1:256:32:1:l -cache:il2 dl2 shellsort1641104062
	sim-cache -cache:dl1 dl1:256:32:1:l -cache:dl2 dl2:65536:32:1:l -cache:il1 il1:256:32:1:l -cache:il2 dl2 shellsort1641104062
	sim-cache -cache:dl1 dl1:1:32:256:l -cache:dl2 dl2:1:32:131072:l -cache:il1 il1:1:32:256:l -cache:il2 dl2 shellsort1641104062
	sim-cache -cache:dl1 dl1:1:32:256:l -cache:dl2 dl2:1:32:65536:l -cache:il1 il1:1:32:256:l -cache:il2 dl2 shellsort1641104062
	sim-bpred -bpred bimod -bpred:bimod 512 shellsort1641104062
	sim-bpred -bpred bimod -bpred:bimod 1024 shellsort1641104062
	sim-bpred -bpred bimod -bpred:bimod 2048 shellsort1641104062
	sim-bpred -bpred 2lev -bpred:2lev 1 512 10 1 shellsort1641104062
	sim-bpred -bpred 2lev -bpred:2lev 1 1024 10 1 shellsort1641104062
	sim-bpred -bpred 2lev -bpred:2lev 1 2048 10 1 shellsort1641104062
	sim-bpred -bpred 2lev -bpred:2lev 1 4096 10 1 shellsort1641104062
	sslittle-na-sstrix-gcc -Wall -O3 -funroll-loops -finline-functions  -DRANDOM_SIZE=65536 -DOFFSET=5 -DSORT=shellsort sorts/shellsort556842481.c simpleMain.c -o shellsort1641104062
	sim-cache -cache:dl1 dl1:256:32:1:l -cache:dl2 dl2:131072:32:1:l -cache:il1 il1:256:32:1:l -cache:il2 dl2 shellsort1641104062
	sim-cache -cache:dl1 dl1:256:32:1:l -cache:dl2 dl2:65536:32:1:l -cache:il1 il1:256:32:1:l -cache:il2 dl2 shellsort1641104062
	sim-cache -cache:dl1 dl1:1:32:256:l -cache:dl2 dl2:1:32:131072:l -cache:il1 il1:1:32:256:l -cache:il2 dl2 shellsort1641104062
	sim-cache -cache:dl1 dl1:1:32:256:l -cache:dl2 dl2:1:32:65536:l -cache:il1 il1:1:32:256:l -cache:il2 dl2 shellsort1641104062
	sim-bpred -bpred bimod -bpred:bimod 512 shellsort1641104062
	sim-bpred -bpred bimod -bpred:bimod 1024 shellsort1641104062
	sim-bpred -bpred bimod -bpred:bimod 2048 shellsort1641104062
	sim-bpred -bpred 2lev -bpred:2lev 1 512 10 1 shellsort1641104062
	sim-bpred -bpred 2lev -bpred:2lev 1 1024 10 1 shellsort1641104062
	sim-bpred -bpred 2lev -bpred:2lev 1 2048 10 1 shellsort1641104062
	sim-bpred -bpred 2lev -bpred:2lev 1 4096 10 1 shellsort1641104062
	sslittle-na-sstrix-gcc -Wall -O3 -funroll-loops -finline-functions  -DRANDOM_SIZE=131072 -DOFFSET=5 -DSORT=shellsort sorts/shellsort556842481.c simpleMain.c -o shellsort1641104062
	sim-cache -cache:dl1 dl1:256:32:1:l -cache:dl2 dl2:131072:32:1:l -cache:il1 il1:256:32:1:l -cache:il2 dl2 shellsort1641104062
	sim-cache -cache:dl1 dl1:256:32:1:l -cache:dl2 dl2:65536:32:1:l -cache:il1 il1:256:32:1:l -cache:il2 dl2 shellsort1641104062
	sim-cache -cache:dl1 dl1:1:32:256:l -cache:dl2 dl2:1:32:131072:l -cache:il1 il1:1:32:256:l -cache:il2 dl2 shellsort1641104062
	sim-cache -cache:dl1 dl1:1:32:256:l -cache:dl2 dl2:1:32:65536:l -cache:il1 il1:1:32:256:l -cache:il2 dl2 shellsort1641104062
	sim-bpred -bpred bimod -bpred:bimod 512 shellsort1641104062
	sim-bpred -bpred bimod -bpred:bimod 1024 shellsort1641104062
	sim-bpred -bpred bimod -bpred:bimod 2048 shellsort1641104062
	sim-bpred -bpred 2lev -bpred:2lev 1 512 10 1 shellsort1641104062
	sim-bpred -bpred 2lev -bpred:2lev 1 1024 10 1 shellsort1641104062
	sim-bpred -bpred 2lev -bpred:2lev 1 2048 10 1 shellsort1641104062
	sim-bpred -bpred 2lev -bpred:2lev 1 4096 10 1 shellsort1641104062
	sslittle-na-sstrix-gcc -Wall -O3 -funroll-loops -finline-functions  -DRANDOM_SIZE=262144 -DOFFSET=5 -DSORT=shellsort sorts/shellsort556842481.c simpleMain.c -o shellsort1641104062
	sim-cache -cache:dl1 dl1:256:32:1:l -cache:dl2 dl2:131072:32:1:l -cache:il1 il1:256:32:1:l -cache:il2 dl2 shellsort1641104062
	sim-cache -cache:dl1 dl1:256:32:1:l -cache:dl2 dl2:65536:32:1:l -cache:il1 il1:256:32:1:l -cache:il2 dl2 shellsort1641104062
	sim-cache -cache:dl1 dl1:1:32:256:l -cache:dl2 dl2:1:32:131072:l -cache:il1 il1:1:32:256:l -cache:il2 dl2 shellsort1641104062
	sim-cache -cache:dl1 dl1:1:32:256:l -cache:dl2 dl2:1:32:65536:l -cache:il1 il1:1:32:256:l -cache:il2 dl2 shellsort1641104062
	sim-bpred -bpred bimod -bpred:bimod 512 shellsort1641104062
	sim-bpred -bpred bimod -bpred:bimod 1024 shellsort1641104062
	sim-bpred -bpred bimod -bpred:bimod 2048 shellsort1641104062
	sim-bpred -bpred 2lev -bpred:2lev 1 512 10 1 shellsort1641104062
	sim-bpred -bpred 2lev -bpred:2lev 1 1024 10 1 shellsort1641104062
	sim-bpred -bpred 2lev -bpred:2lev 1 2048 10 1 shellsort1641104062
	sim-bpred -bpred 2lev -bpred:2lev 1 4096 10 1 shellsort1641104062
	sslittle-na-sstrix-gcc -Wall -O3 -funroll-loops -finline-functions  -DRANDOM_SIZE=524288 -DOFFSET=5 -DSORT=shellsort sorts/shellsort556842481.c simpleMain.c -o shellsort1641104062
	sim-cache -cache:dl1 dl1:256:32:1:l -cache:dl2 dl2:131072:32:1:l -cache:il1 il1:256:32:1:l -cache:il2 dl2 shellsort1641104062
	sim-cache -cache:dl1 dl1:256:32:1:l -cache:dl2 dl2:65536:32:1:l -cache:il1 il1:256:32:1:l -cache:il2 dl2 shellsort1641104062
	sim-cache -cache:dl1 dl1:1:32:256:l -cache:dl2 dl2:1:32:131072:l -cache:il1 il1:1:32:256:l -cache:il2 dl2 shellsort1641104062
	sim-cache -cache:dl1 dl1:1:32:256:l -cache:dl2 dl2:1:32:65536:l -cache:il1 il1:1:32:256:l -cache:il2 dl2 shellsort1641104062
	sim-bpred -bpred bimod -bpred:bimod 512 shellsort1641104062
	sim-bpred -bpred bimod -bpred:bimod 1024 shellsort1641104062
	sim-bpred -bpred bimod -bpred:bimod 2048 shellsort1641104062
	sim-bpred -bpred 2lev -bpred:2lev 1 512 10 1 shellsort1641104062
	sim-bpred -bpred 2lev -bpred:2lev 1 1024 10 1 shellsort1641104062
	sim-bpred -bpred 2lev -bpred:2lev 1 2048 10 1 shellsort1641104062
	sim-bpred -bpred 2lev -bpred:2lev 1 4096 10 1 shellsort1641104062
	sslittle-na-sstrix-gcc -Wall -O3 -funroll-loops -finline-functions  -DRANDOM_SIZE=1048576 -DOFFSET=5 -DSORT=shellsort sorts/shellsort556842481.c simpleMain.c -o shellsort1641104062
	sim-cache -cache:dl1 dl1:256:32:1:l -cache:dl2 dl2:131072:32:1:l -cache:il1 il1:256:32:1:l -cache:il2 dl2 shellsort1641104062
	sim-cache -cache:dl1 dl1:256:32:1:l -cache:dl2 dl2:65536:32:1:l -cache:il1 il1:256:32:1:l -cache:il2 dl2 shellsort1641104062
	sim-cache -cache:dl1 dl1:1:32:256:l -cache:dl2 dl2:1:32:131072:l -cache:il1 il1:1:32:256:l -cache:il2 dl2 shellsort1641104062
	sim-cache -cache:dl1 dl1:1:32:256:l -cache:dl2 dl2:1:32:65536:l -cache:il1 il1:1:32:256:l -cache:il2 dl2 shellsort1641104062
	sim-bpred -bpred bimod -bpred:bimod 512 shellsort1641104062
	sim-bpred -bpred bimod -bpred:bimod 1024 shellsort1641104062
	sim-bpred -bpred bimod -bpred:bimod 2048 shellsort1641104062
	sim-bpred -bpred 2lev -bpred:2lev 1 512 10 1 shellsort1641104062
	sim-bpred -bpred 2lev -bpred:2lev 1 1024 10 1 shellsort1641104062
	sim-bpred -bpred 2lev -bpred:2lev 1 2048 10 1 shellsort1641104062
	sim-bpred -bpred 2lev -bpred:2lev 1 4096 10 1 shellsort1641104062
	sslittle-na-sstrix-gcc -Wall -O3 -funroll-loops -finline-functions  -DRANDOM_SIZE=2097152 -DOFFSET=5 -DSORT=shellsort sorts/shellsort556842481.c simpleMain.c -o shellsort1641104062
	sim-cache -cache:dl1 dl1:256:32:1:l -cache:dl2 dl2:131072:32:1:l -cache:il1 il1:256:32:1:l -cache:il2 dl2 shellsort1641104062
	sim-cache -cache:dl1 dl1:256:32:1:l -cache:dl2 dl2:65536:32:1:l -cache:il1 il1:256:32:1:l -cache:il2 dl2 shellsort1641104062
	sim-cache -cache:dl1 dl1:1:32:256:l -cache:dl2 dl2:1:32:131072:l -cache:il1 il1:1:32:256:l -cache:il2 dl2 shellsort1641104062
	sim-cache -cache:dl1 dl1:1:32:256:l -cache:dl2 dl2:1:32:65536:l -cache:il1 il1:1:32:256:l -cache:il2 dl2 shellsort1641104062
	sim-bpred -bpred bimod -bpred:bimod 512 shellsort1641104062
	sim-bpred -bpred bimod -bpred:bimod 1024 shellsort1641104062
	sim-bpred -bpred bimod -bpred:bimod 2048 shellsort1641104062
	sim-bpred -bpred 2lev -bpred:2lev 1 512 10 1 shellsort1641104062
	sim-bpred -bpred 2lev -bpred:2lev 1 1024 10 1 shellsort1641104062
	sim-bpred -bpred 2lev -bpred:2lev 1 2048 10 1 shellsort1641104062
	sim-bpred -bpred 2lev -bpred:2lev 1 4096 10 1 shellsort1641104062
	sslittle-na-sstrix-gcc -Wall -O3 -funroll-loops -finline-functions  -DRANDOM_SIZE=4194304 -DOFFSET=5 -DSORT=shellsort sorts/shellsort556842481.c simpleMain.c -o shellsort1641104062
	sim-cache -cache:dl1 dl1:256:32:1:l -cache:dl2 dl2:131072:32:1:l -cache:il1 il1:256:32:1:l -cache:il2 dl2 shellsort1641104062
	sim-cache -cache:dl1 dl1:256:32:1:l -cache:dl2 dl2:65536:32:1:l -cache:il1 il1:256:32:1:l -cache:il2 dl2 shellsort1641104062
	sim-cache -cache:dl1 dl1:1:32:256:l -cache:dl2 dl2:1:32:131072:l -cache:il1 il1:1:32:256:l -cache:il2 dl2 shellsort1641104062
	sim-cache -cache:dl1 dl1:1:32:256:l -cache:dl2 dl2:1:32:65536:l -cache:il1 il1:1:32:256:l -cache:il2 dl2 shellsort1641104062
	sim-bpred -bpred bimod -bpred:bimod 512 shellsort1641104062
	sim-bpred -bpred bimod -bpred:bimod 1024 shellsort1641104062
	sim-bpred -bpred bimod -bpred:bimod 2048 shellsort1641104062
	sim-bpred -bpred 2lev -bpred:2lev 1 512 10 1 shellsort1641104062
	sim-bpred -bpred 2lev -bpred:2lev 1 1024 10 1 shellsort1641104062
	sim-bpred -bpred 2lev -bpred:2lev 1 2048 10 1 shellsort1641104062
	sim-bpred -bpred 2lev -bpred:2lev 1 4096 10 1 shellsort1641104062
