Tue Jun 28 22:41:51 2005
Run as: "./do_simple -c random.org2 -o 2 shellsort"
-------------------------------------------------------------------------------------------------
sim-cache                                     4096 |         4096 |         4096 |         4096 |         8192 |         8192 |         8192 |         8192 |        16384 |        16384 |        16384 |        16384 |        32768 |        32768 |        32768 |        32768 |        65536 |        65536 |        65536 |        65536 |       131072 |       131072 |       131072 |       131072 |       262144 |       262144 |       262144 |       262144 |       524288 |       524288 |       524288 |       524288 |      1048576 |      1048576 |      1048576 |      1048576 |      2097152 |      2097152 |      2097152 |      2097152 |      4194304 |      4194304 |      4194304 |      4194304 |
-cache:dl1 dl1:256:32:1:l -cache:dl2 dl2:131072:32:1:l -cache:il1 il1:256:32:1:l -cache:il2 dl2
-cache:dl1 dl1:256:32:1:l -cache:dl2 dl2:65536:32:1:l -cache:il1 il1:256:32:1:l -cache:il2 dl2
-cache:dl1 dl1:1:32:256:l -cache:dl2 dl2:1:32:131072:l -cache:il1 il1:1:32:256:l -cache:il2 dl2
-cache:dl1 dl1:1:32:256:l -cache:dl2 dl2:1:32:65536:l -cache:il1 il1:1:32:256:l -cache:il2 dl2
-------------------------------------------------------------------------------------------------
sim_num_insn                                986545 |       986545 |       986545 |       986545 |      2226994 |      2226994 |      2226994 |      2226994 |      4884422 |      4884422 |      4884422 |      4884422 |     10566254 |     10566254 |     10566254 |     10566254 |     22737074 |     22737074 |     22737074 |     22737074 |     49097312 |     49097312 |     49097312 |     49097312 |    101547334 |    101547334 |    101547334 |    101547334 |    218424240 |    218424240 |    218424240 |    218424240 |    462487991 |    462487991 |    462487991 |    462487991 |    996633700 |    996633700 |    996633700 |    996633700 |   2076298068 |   2076298068 |   2076298068 |   2076298068 |
sim_num_refs                                185775 |       185775 |       185775 |       185775 |       415380 |       415380 |       415380 |       415380 |       908114 |       908114 |       908114 |       908114 |      1962944 |      1962944 |      1962944 |      1962944 |      4190753 |      4190753 |      4190753 |      4190753 |      9048334 |      9048334 |      9048334 |      9048334 |     18783964 |     18783964 |     18783964 |     18783964 |     40382442 |     40382442 |     40382442 |     40382442 |     85559869 |     85559869 |     85559869 |     85559869 |    184108715 |    184108715 |    184108715 |    184108715 |    384150478 |    384150478 |    384150478 |    384150478 |
sim_elapsed_time                                 1 |            1 |            6 |            4 |            1 |            1 |            9 |            5 |            1 |            1 |           15 |            8 |            2 |            3 |           26 |           14 |            6 |            5 |           48 |           26 |           12 |           11 |           91 |           49 |           24 |           24 |          169 |           86 |           52 |           52 |          298 |          135 |          111 |          113 |          438 |          202 |          240 |          239 |          586 |          346 |          499 |          499 |          878 |          637 |
sim_inst_rate                          986545.0000 |  986545.0000 |  164424.1667 |  246636.2500 | 2226994.0000 | 2226994.0000 |  247443.7778 |  445398.8000 | 4884422.0000 | 4884422.0000 |  325628.1333 |  610552.7500 | 5283127.0000 | 3522084.6667 |  406394.3846 |  754732.4286 | 3789512.3333 | 4547414.8000 |  473689.0417 |  874502.8462 | 4091442.6667 | 4463392.0000 |  539530.9011 | 1001985.9592 | 4231138.9167 | 4231138.9167 |  600871.7988 | 1180782.9535 | 4200466.1538 | 4200466.1538 |  732967.2483 | 1617957.3333 | 4166558.4775 | 4092814.0796 | 1055908.6553 | 2289544.5099 | 4152640.4167 | 4170015.4812 | 1700740.1024 | 2880444.2197 | 4160917.9719 | 4160917.9719 | 2364804.1777 | 3259494.6122 |
il1.accesses                                986545 |       986545 |       986545 |       986545 |      2226994 |      2226994 |      2226994 |      2226994 |      4884422 |      4884422 |      4884422 |      4884422 |     10566254 |     10566254 |     10566254 |     10566254 |     22737074 |     22737074 |     22737074 |     22737074 |     49097312 |     49097312 |     49097312 |     49097312 |    101547334 |    101547334 |    101547334 |    101547334 |    218424240 |    218424240 |    218424240 |    218424240 |    462487991 |    462487991 |    462487991 |    462487991 |    996633700 |    996633700 |    996633700 |    996633700 |   2076298068 |   2076298068 |   2076298068 |   2076298068 |
il1.hits                                    986169 |       986169 |       986224 |       986224 |      2226618 |      2226618 |      2226673 |      2226673 |      4884036 |      4884036 |      4884095 |      4884095 |     10565876 |     10565876 |     10565931 |     10565931 |     22736696 |     22736696 |     22736751 |     22736751 |     49096934 |     49096934 |     49096989 |     49096989 |    101546956 |    101546956 |    101547011 |    101547011 |    218423862 |    218423862 |    218423917 |    218423917 |    462487613 |    462487613 |    462487668 |    462487668 |    996633322 |    996633322 |    996633377 |    996633377 |   2076297690 |   2076297690 |   2076297745 |   2076297745 |
il1.misses                                     376 |          376 |          321 |          321 |          376 |          376 |          321 |          321 |          386 |          386 |          327 |          327 |          378 |          378 |          323 |          323 |          378 |          378 |          323 |          323 |          378 |          378 |          323 |          323 |          378 |          378 |          323 |          323 |          378 |          378 |          323 |          323 |          378 |          378 |          323 |          323 |          378 |          378 |          323 |          323 |          378 |          378 |          323 |          323 |
il1.replacements                               190 |          190 |           65 |           65 |          190 |          190 |           65 |           65 |          196 |          196 |           71 |           71 |          192 |          192 |           67 |           67 |          192 |          192 |           67 |           67 |          192 |          192 |           67 |           67 |          192 |          192 |           67 |           67 |          192 |          192 |           67 |           67 |          192 |          192 |           67 |           67 |          192 |          192 |           67 |           67 |          192 |          192 |           67 |           67 |
il1.writebacks                                   0 |            0 |            0 |            0 |            0 |            0 |            0 |            0 |            0 |            0 |            0 |            0 |            0 |            0 |            0 |            0 |            0 |            0 |            0 |            0 |            0 |            0 |            0 |            0 |            0 |            0 |            0 |            0 |            0 |            0 |            0 |            0 |            0 |            0 |            0 |            0 |            0 |            0 |            0 |            0 |            0 |            0 |            0 |            0 |
il1.invalidations                                0 |            0 |            0 |            0 |            0 |            0 |            0 |            0 |            0 |            0 |            0 |            0 |            0 |            0 |            0 |            0 |            0 |            0 |            0 |            0 |            0 |            0 |            0 |            0 |            0 |            0 |            0 |            0 |            0 |            0 |            0 |            0 |            0 |            0 |            0 |            0 |            0 |            0 |            0 |            0 |            0 |            0 |            0 |            0 |
il1.miss_rate                               0.0004 |       0.0004 |       0.0003 |       0.0003 |       0.0002 |       0.0002 |       0.0001 |       0.0001 |       0.0001 |       0.0001 |       0.0001 |       0.0001 |       0.0000 |       0.0000 |       0.0000 |       0.0000 |       0.0000 |       0.0000 |       0.0000 |       0.0000 |       0.0000 |       0.0000 |       0.0000 |       0.0000 |       0.0000 |       0.0000 |       0.0000 |       0.0000 |       0.0000 |       0.0000 |       0.0000 |       0.0000 |       0.0000 |       0.0000 |       0.0000 |       0.0000 |       0.0000 |       0.0000 |       0.0000 |       0.0000 |       0.0000 |       0.0000 |       0.0000 |       0.0000 |
il1.repl_rate                               0.0002 |       0.0002 |       0.0001 |       0.0001 |       0.0001 |       0.0001 |       0.0000 |       0.0000 |       0.0000 |       0.0000 |       0.0000 |       0.0000 |       0.0000 |       0.0000 |       0.0000 |       0.0000 |       0.0000 |       0.0000 |       0.0000 |       0.0000 |       0.0000 |       0.0000 |       0.0000 |       0.0000 |       0.0000 |       0.0000 |       0.0000 |       0.0000 |       0.0000 |       0.0000 |       0.0000 |       0.0000 |       0.0000 |       0.0000 |       0.0000 |       0.0000 |       0.0000 |       0.0000 |       0.0000 |       0.0000 |       0.0000 |       0.0000 |       0.0000 |       0.0000 |
il1.wb_rate                                 0.0000 |       0.0000 |       0.0000 |       0.0000 |       0.0000 |       0.0000 |       0.0000 |       0.0000 |       0.0000 |       0.0000 |       0.0000 |       0.0000 |       0.0000 |       0.0000 |       0.0000 |       0.0000 |       0.0000 |       0.0000 |       0.0000 |       0.0000 |       0.0000 |       0.0000 |       0.0000 |       0.0000 |       0.0000 |       0.0000 |       0.0000 |       0.0000 |       0.0000 |       0.0000 |       0.0000 |       0.0000 |       0.0000 |       0.0000 |       0.0000 |       0.0000 |       0.0000 |       0.0000 |       0.0000 |       0.0000 |       0.0000 |       0.0000 |       0.0000 |       0.0000 |
il1.inv_rate                                0.0000 |       0.0000 |       0.0000 |       0.0000 |       0.0000 |       0.0000 |       0.0000 |       0.0000 |       0.0000 |       0.0000 |       0.0000 |       0.0000 |       0.0000 |       0.0000 |       0.0000 |       0.0000 |       0.0000 |       0.0000 |       0.0000 |       0.0000 |       0.0000 |       0.0000 |       0.0000 |       0.0000 |       0.0000 |       0.0000 |       0.0000 |       0.0000 |       0.0000 |       0.0000 |       0.0000 |       0.0000 |       0.0000 |       0.0000 |       0.0000 |       0.0000 |       0.0000 |       0.0000 |       0.0000 |       0.0000 |       0.0000 |       0.0000 |       0.0000 |       0.0000 |
dl1.accesses                                202241 |       202241 |       202241 |       202241 |       448230 |       448230 |       448230 |       448230 |       973732 |       973732 |       973732 |       973732 |      2094098 |      2094098 |      2094098 |      2094098 |      4452979 |      4452979 |      4452979 |      4452979 |      9572704 |      9572704 |      9572704 |      9572704 |     19832622 |     19832622 |     19832622 |     19832622 |     42479676 |     42479676 |     42479676 |     42479676 |     89754255 |     89754255 |     89754255 |     89754255 |    192497405 |    192497405 |    192497405 |    192497405 |    400927776 |    400927776 |    400927776 |    400927776 |
dl1.hits                                    195773 |       195773 |       195372 |       195372 |       431587 |       431587 |       430890 |       430890 |       931233 |       931233 |       929871 |       929871 |      1993398 |      1993398 |      1986463 |      1986463 |      4215369 |      4215369 |      4202849 |      4202849 |      9011166 |      9011166 |      8986523 |      8986523 |     18565800 |     18565800 |     18473495 |     18473495 |     39576162 |     39576162 |     39384750 |     39384750 |     83362768 |     83362768 |     82855581 |     82855581 |    178197633 |    178197633 |    177755933 |    177755933 |    369664374 |    369664374 |    369481215 |    369481215 |
dl1.misses                                    6468 |         6468 |         6869 |         6869 |        16643 |        16643 |        17340 |        17340 |        42499 |        42499 |        43861 |        43861 |       100700 |       100700 |       107635 |       107635 |       237610 |       237610 |       250130 |       250130 |       561538 |       561538 |       586181 |       586181 |      1266822 |      1266822 |      1359127 |      1359127 |      2903514 |      2903514 |      3094926 |      3094926 |      6391487 |      6391487 |      6898674 |      6898674 |     14299772 |     14299772 |     14741472 |     14741472 |     31263402 |     31263402 |     31446561 |     31446561 |
dl1.replacements                              6212 |         6212 |         6613 |         6613 |        16387 |        16387 |        17084 |        17084 |        42243 |        42243 |        43605 |        43605 |       100444 |       100444 |       107379 |       107379 |       237354 |       237354 |       249874 |       249874 |       561282 |       561282 |       585925 |       585925 |      1266566 |      1266566 |      1358871 |      1358871 |      2903258 |      2903258 |      3094670 |      3094670 |      6391231 |      6391231 |      6898418 |      6898418 |     14299516 |     14299516 |     14741216 |     14741216 |     31263146 |     31263146 |     31446305 |     31446305 |
dl1.writebacks                                6105 |         6105 |         6401 |         6401 |        15328 |        15328 |        15887 |        15887 |        38295 |        38295 |        39381 |        39381 |        89550 |        89550 |        95145 |        95145 |       207406 |       207406 |       217982 |       217982 |       485189 |       485189 |       506287 |       506287 |      1091404 |      1091404 |      1167584 |      1167584 |      2485781 |      2485781 |      2647295 |      2647295 |      5462294 |      5462294 |      5875050 |      5875050 |     12175443 |     12175443 |     12543637 |     12543637 |     26570388 |     26570388 |     26694188 |     26694188 |
dl1.invalidations                                0 |            0 |            0 |            0 |            0 |            0 |            0 |            0 |            0 |            0 |            0 |            0 |            0 |            0 |            0 |            0 |            0 |            0 |            0 |            0 |            0 |            0 |            0 |            0 |            0 |            0 |            0 |            0 |            0 |            0 |            0 |            0 |            0 |            0 |            0 |            0 |            0 |            0 |            0 |            0 |            0 |            0 |            0 |            0 |
dl1.miss_rate                               0.0320 |       0.0320 |       0.0340 |       0.0340 |       0.0371 |       0.0371 |       0.0387 |       0.0387 |       0.0436 |       0.0436 |       0.0450 |       0.0450 |       0.0481 |       0.0481 |       0.0514 |       0.0514 |       0.0534 |       0.0534 |       0.0562 |       0.0562 |       0.0587 |       0.0587 |       0.0612 |       0.0612 |       0.0639 |       0.0639 |       0.0685 |       0.0685 |       0.0684 |       0.0684 |       0.0729 |       0.0729 |       0.0712 |       0.0712 |       0.0769 |       0.0769 |       0.0743 |       0.0743 |       0.0766 |       0.0766 |       0.0780 |       0.0780 |       0.0784 |       0.0784 |
dl1.repl_rate                               0.0307 |       0.0307 |       0.0327 |       0.0327 |       0.0366 |       0.0366 |       0.0381 |       0.0381 |       0.0434 |       0.0434 |       0.0448 |       0.0448 |       0.0480 |       0.0480 |       0.0513 |       0.0513 |       0.0533 |       0.0533 |       0.0561 |       0.0561 |       0.0586 |       0.0586 |       0.0612 |       0.0612 |       0.0639 |       0.0639 |       0.0685 |       0.0685 |       0.0683 |       0.0683 |       0.0729 |       0.0729 |       0.0712 |       0.0712 |       0.0769 |       0.0769 |       0.0743 |       0.0743 |       0.0766 |       0.0766 |       0.0780 |       0.0780 |       0.0784 |       0.0784 |
dl1.wb_rate                                 0.0302 |       0.0302 |       0.0317 |       0.0317 |       0.0342 |       0.0342 |       0.0354 |       0.0354 |       0.0393 |       0.0393 |       0.0404 |       0.0404 |       0.0428 |       0.0428 |       0.0454 |       0.0454 |       0.0466 |       0.0466 |       0.0490 |       0.0490 |       0.0507 |       0.0507 |       0.0529 |       0.0529 |       0.0550 |       0.0550 |       0.0589 |       0.0589 |       0.0585 |       0.0585 |       0.0623 |       0.0623 |       0.0609 |       0.0609 |       0.0655 |       0.0655 |       0.0632 |       0.0632 |       0.0652 |       0.0652 |       0.0663 |       0.0663 |       0.0666 |       0.0666 |
dl1.inv_rate                                0.0000 |       0.0000 |       0.0000 |       0.0000 |       0.0000 |       0.0000 |       0.0000 |       0.0000 |       0.0000 |       0.0000 |       0.0000 |       0.0000 |       0.0000 |       0.0000 |       0.0000 |       0.0000 |       0.0000 |       0.0000 |       0.0000 |       0.0000 |       0.0000 |       0.0000 |       0.0000 |       0.0000 |       0.0000 |       0.0000 |       0.0000 |       0.0000 |       0.0000 |       0.0000 |       0.0000 |       0.0000 |       0.0000 |       0.0000 |       0.0000 |       0.0000 |       0.0000 |       0.0000 |       0.0000 |       0.0000 |       0.0000 |       0.0000 |       0.0000 |       0.0000 |
dl2.accesses                                 12949 |        12949 |        13591 |        13591 |        32347 |        32347 |        33548 |        33548 |        81180 |        81180 |        83569 |        83569 |       190628 |       190628 |       203103 |       203103 |       445394 |       445394 |       468435 |       468435 |      1047105 |      1047105 |      1092791 |      1092791 |      2358604 |      2358604 |      2527034 |      2527034 |      5389673 |      5389673 |      5742544 |      5742544 |     11854159 |     11854159 |     12774047 |     12774047 |     26475593 |     26475593 |     27285432 |     27285432 |     57834168 |     57834168 |     58141072 |     58141072 |
dl2.hits                                     11703 |        11703 |        12347 |        12347 |        30589 |        30589 |        31792 |        31792 |        78393 |        78393 |        80782 |        80782 |       185796 |       185796 |       198273 |       198273 |       436466 |       436466 |       459509 |       459509 |      1029985 |      1029985 |      1075673 |      1075673 |      2325100 |      2325100 |      2493532 |      2493532 |      5323401 |      5323328 |      5676274 |      5391719 |     11722276 |      9396152 |     12058647 |     10213033 |     21298217 |     20474161 |     21902624 |     21122862 |     45309416 |     43395276 |     45292708 |     43352116 |
dl2.misses                                    1246 |         1246 |         1244 |         1244 |         1758 |         1758 |         1756 |         1756 |         2787 |         2787 |         2787 |         2787 |         4832 |         4832 |         4830 |         4830 |         8928 |         8928 |         8926 |         8926 |        17120 |        17120 |        17118 |        17118 |        33504 |        33504 |        33502 |        33502 |        66272 |        66345 |        66270 |       350825 |       131883 |      2458007 |       715400 |      2561014 |      5177376 |      6001432 |      5382808 |      6162570 |     12524752 |     14438892 |     12848364 |     14788956 |
dl2.replacements                                62 |           62 |            0 |            0 |           63 |           63 |            0 |            0 |           60 |           60 |            0 |            0 |           63 |           63 |            0 |            0 |           63 |           63 |            0 |            0 |           63 |           63 |            0 |            0 |           63 |           63 |            0 |            0 |           63 |          809 |            0 |       285289 |          811 |      2392471 |       584328 |      2495478 |      5046304 |      5935896 |      5251736 |      6097034 |     12393680 |     14373356 |     12717292 |     14723420 |
dl2.writebacks                                   0 |            0 |            0 |            0 |            0 |            0 |            0 |            0 |            0 |            0 |            0 |            0 |            0 |            0 |            0 |            0 |            0 |            0 |            0 |            0 |            0 |            0 |            0 |            0 |            0 |            0 |            0 |            0 |            0 |          651 |            0 |       285179 |          653 |      2366857 |       584221 |      2445384 |      4995114 |      5657807 |      5152222 |      5789254 |     11837993 |     13356747 |     12101430 |     13633491 |
dl2.invalidations                                0 |            0 |            0 |            0 |            0 |            0 |            0 |            0 |            0 |            0 |            0 |            0 |            0 |            0 |            0 |            0 |            0 |            0 |            0 |            0 |            0 |            0 |            0 |            0 |            0 |            0 |            0 |            0 |            0 |            0 |            0 |            0 |            0 |            0 |            0 |            0 |            0 |            0 |            0 |            0 |            0 |            0 |            0 |            0 |
dl2.miss_rate                               0.0962 |       0.0962 |       0.0915 |       0.0915 |       0.0543 |       0.0543 |       0.0523 |       0.0523 |       0.0343 |       0.0343 |       0.0333 |       0.0333 |       0.0253 |       0.0253 |       0.0238 |       0.0238 |       0.0200 |       0.0200 |       0.0191 |       0.0191 |       0.0163 |       0.0163 |       0.0157 |       0.0157 |       0.0142 |       0.0142 |       0.0133 |       0.0133 |       0.0123 |       0.0123 |       0.0115 |       0.0611 |       0.0111 |       0.2074 |       0.0560 |       0.2005 |       0.1956 |       0.2267 |       0.1973 |       0.2259 |       0.2166 |       0.2497 |       0.2210 |       0.2544 |
dl2.repl_rate                               0.0048 |       0.0048 |       0.0000 |       0.0000 |       0.0019 |       0.0019 |       0.0000 |       0.0000 |       0.0007 |       0.0007 |       0.0000 |       0.0000 |       0.0003 |       0.0003 |       0.0000 |       0.0000 |       0.0001 |       0.0001 |       0.0000 |       0.0000 |       0.0001 |       0.0001 |       0.0000 |       0.0000 |       0.0000 |       0.0000 |       0.0000 |       0.0000 |       0.0000 |       0.0002 |       0.0000 |       0.0497 |       0.0001 |       0.2018 |       0.0457 |       0.1954 |       0.1906 |       0.2242 |       0.1925 |       0.2235 |       0.2143 |       0.2485 |       0.2187 |       0.2532 |
dl2.wb_rate                                 0.0000 |       0.0000 |       0.0000 |       0.0000 |       0.0000 |       0.0000 |       0.0000 |       0.0000 |       0.0000 |       0.0000 |       0.0000 |       0.0000 |       0.0000 |       0.0000 |       0.0000 |       0.0000 |       0.0000 |       0.0000 |       0.0000 |       0.0000 |       0.0000 |       0.0000 |       0.0000 |       0.0000 |       0.0000 |       0.0000 |       0.0000 |       0.0000 |       0.0000 |       0.0001 |       0.0000 |       0.0497 |       0.0001 |       0.1997 |       0.0457 |       0.1914 |       0.1887 |       0.2137 |       0.1888 |       0.2122 |       0.2047 |       0.2309 |       0.2081 |       0.2345 |
dl2.inv_rate                                0.0000 |       0.0000 |       0.0000 |       0.0000 |       0.0000 |       0.0000 |       0.0000 |       0.0000 |       0.0000 |       0.0000 |       0.0000 |       0.0000 |       0.0000 |       0.0000 |       0.0000 |       0.0000 |       0.0000 |       0.0000 |       0.0000 |       0.0000 |       0.0000 |       0.0000 |       0.0000 |       0.0000 |       0.0000 |       0.0000 |       0.0000 |       0.0000 |       0.0000 |       0.0000 |       0.0000 |       0.0000 |       0.0000 |       0.0000 |       0.0000 |       0.0000 |       0.0000 |       0.0000 |       0.0000 |       0.0000 |       0.0000 |       0.0000 |       0.0000 |       0.0000 |
itlb.accesses                               986545 |       986545 |       986545 |       986545 |      2226994 |      2226994 |      2226994 |      2226994 |      4884422 |      4884422 |      4884422 |      4884422 |     10566254 |     10566254 |     10566254 |     10566254 |     22737074 |     22737074 |     22737074 |     22737074 |     49097312 |     49097312 |     49097312 |     49097312 |    101547334 |    101547334 |    101547334 |    101547334 |    218424240 |    218424240 |    218424240 |    218424240 |    462487991 |    462487991 |    462487991 |    462487991 |    996633700 |    996633700 |    996633700 |    996633700 |   2076298068 |   2076298068 |   2076298068 |   2076298068 |
itlb.hits                                   986535 |       986535 |       986535 |       986535 |      2226984 |      2226984 |      2226984 |      2226984 |      4884412 |      4884412 |      4884412 |      4884412 |     10566244 |     10566244 |     10566244 |     10566244 |     22737064 |     22737064 |     22737064 |     22737064 |     49097302 |     49097302 |     49097302 |     49097302 |    101547324 |    101547324 |    101547324 |    101547324 |    218424230 |    218424230 |    218424230 |    218424230 |    462487981 |    462487981 |    462487981 |    462487981 |    996633690 |    996633690 |    996633690 |    996633690 |   2076298058 |   2076298058 |   2076298058 |   2076298058 |
itlb.misses                                     10 |           10 |           10 |           10 |           10 |           10 |           10 |           10 |           10 |           10 |           10 |           10 |           10 |           10 |           10 |           10 |           10 |           10 |           10 |           10 |           10 |           10 |           10 |           10 |           10 |           10 |           10 |           10 |           10 |           10 |           10 |           10 |           10 |           10 |           10 |           10 |           10 |           10 |           10 |           10 |           10 |           10 |           10 |           10 |
itlb.replacements                                0 |            0 |            0 |            0 |            0 |            0 |            0 |            0 |            0 |            0 |            0 |            0 |            0 |            0 |            0 |            0 |            0 |            0 |            0 |            0 |            0 |            0 |            0 |            0 |            0 |            0 |            0 |            0 |            0 |            0 |            0 |            0 |            0 |            0 |            0 |            0 |            0 |            0 |            0 |            0 |            0 |            0 |            0 |            0 |
itlb.writebacks                                  0 |            0 |            0 |            0 |            0 |            0 |            0 |            0 |            0 |            0 |            0 |            0 |            0 |            0 |            0 |            0 |            0 |            0 |            0 |            0 |            0 |            0 |            0 |            0 |            0 |            0 |            0 |            0 |            0 |            0 |            0 |            0 |            0 |            0 |            0 |            0 |            0 |            0 |            0 |            0 |            0 |            0 |            0 |            0 |
itlb.invalidations                               0 |            0 |            0 |            0 |            0 |            0 |            0 |            0 |            0 |            0 |            0 |            0 |            0 |            0 |            0 |            0 |            0 |            0 |            0 |            0 |            0 |            0 |            0 |            0 |            0 |            0 |            0 |            0 |            0 |            0 |            0 |            0 |            0 |            0 |            0 |            0 |            0 |            0 |            0 |            0 |            0 |            0 |            0 |            0 |
itlb.miss_rate                              0.0000 |       0.0000 |       0.0000 |       0.0000 |       0.0000 |       0.0000 |       0.0000 |       0.0000 |       0.0000 |       0.0000 |       0.0000 |       0.0000 |       0.0000 |       0.0000 |       0.0000 |       0.0000 |       0.0000 |       0.0000 |       0.0000 |       0.0000 |       0.0000 |       0.0000 |       0.0000 |       0.0000 |       0.0000 |       0.0000 |       0.0000 |       0.0000 |       0.0000 |       0.0000 |       0.0000 |       0.0000 |       0.0000 |       0.0000 |       0.0000 |       0.0000 |       0.0000 |       0.0000 |       0.0000 |       0.0000 |       0.0000 |       0.0000 |       0.0000 |       0.0000 |
itlb.repl_rate                              0.0000 |       0.0000 |       0.0000 |       0.0000 |       0.0000 |       0.0000 |       0.0000 |       0.0000 |       0.0000 |       0.0000 |       0.0000 |       0.0000 |       0.0000 |       0.0000 |       0.0000 |       0.0000 |       0.0000 |       0.0000 |       0.0000 |       0.0000 |       0.0000 |       0.0000 |       0.0000 |       0.0000 |       0.0000 |       0.0000 |       0.0000 |       0.0000 |       0.0000 |       0.0000 |       0.0000 |       0.0000 |       0.0000 |       0.0000 |       0.0000 |       0.0000 |       0.0000 |       0.0000 |       0.0000 |       0.0000 |       0.0000 |       0.0000 |       0.0000 |       0.0000 |
itlb.wb_rate                                0.0000 |       0.0000 |       0.0000 |       0.0000 |       0.0000 |       0.0000 |       0.0000 |       0.0000 |       0.0000 |       0.0000 |       0.0000 |       0.0000 |       0.0000 |       0.0000 |       0.0000 |       0.0000 |       0.0000 |       0.0000 |       0.0000 |       0.0000 |       0.0000 |       0.0000 |       0.0000 |       0.0000 |       0.0000 |       0.0000 |       0.0000 |       0.0000 |       0.0000 |       0.0000 |       0.0000 |       0.0000 |       0.0000 |       0.0000 |       0.0000 |       0.0000 |       0.0000 |       0.0000 |       0.0000 |       0.0000 |       0.0000 |       0.0000 |       0.0000 |       0.0000 |
itlb.inv_rate                               0.0000 |       0.0000 |       0.0000 |       0.0000 |       0.0000 |       0.0000 |       0.0000 |       0.0000 |       0.0000 |       0.0000 |       0.0000 |       0.0000 |       0.0000 |       0.0000 |       0.0000 |       0.0000 |       0.0000 |       0.0000 |       0.0000 |       0.0000 |       0.0000 |       0.0000 |       0.0000 |       0.0000 |       0.0000 |       0.0000 |       0.0000 |       0.0000 |       0.0000 |       0.0000 |       0.0000 |       0.0000 |       0.0000 |       0.0000 |       0.0000 |       0.0000 |       0.0000 |       0.0000 |       0.0000 |       0.0000 |       0.0000 |       0.0000 |       0.0000 |       0.0000 |
dtlb.accesses                               202241 |       202241 |       202241 |       202241 |       448230 |       448230 |       448230 |       448230 |       973732 |       973732 |       973732 |       973732 |      2094098 |      2094098 |      2094098 |      2094098 |      4452979 |      4452979 |      4452979 |      4452979 |      9572704 |      9572704 |      9572704 |      9572704 |     19832622 |     19832622 |     19832622 |     19832622 |     42479676 |     42479676 |     42479676 |     42479676 |     89754255 |     89754255 |     89754255 |     89754255 |    192497405 |    192497405 |    192497405 |    192497405 |    400927776 |    400927776 |    400927776 |    400927776 |
dtlb.hits                                   202230 |       202230 |       202230 |       202230 |       448215 |       448215 |       448215 |       448215 |       973709 |       973709 |       973709 |       973709 |      2094059 |      2094059 |      2094059 |      2094059 |      4452908 |      4452908 |      4452908 |      4452908 |      9572500 |      9572500 |      9572500 |      9572500 |     19827363 |     19827363 |     19827363 |     19827363 |     42464779 |     42464779 |     42464779 |     42464779 |     89606396 |     89606396 |     89606396 |     89606396 |    192399563 |    192399563 |    192399563 |    192399563 |    400690605 |    400690605 |    400690605 |    400690605 |
dtlb.misses                                     11 |           11 |           11 |           11 |           15 |           15 |           15 |           15 |           23 |           23 |           23 |           23 |           39 |           39 |           39 |           39 |           71 |           71 |           71 |           71 |          204 |          204 |          204 |          204 |         5259 |         5259 |         5259 |         5259 |        14897 |        14897 |        14897 |        14897 |       147859 |       147859 |       147859 |       147859 |        97842 |        97842 |        97842 |        97842 |       237171 |       237171 |       237171 |       237171 |
dtlb.replacements                                0 |            0 |            0 |            0 |            0 |            0 |            0 |            0 |            0 |            0 |            0 |            0 |            0 |            0 |            0 |            0 |            0 |            0 |            0 |            0 |           76 |           76 |           76 |           76 |         5131 |         5131 |         5131 |         5131 |        14769 |        14769 |        14769 |        14769 |       147731 |       147731 |       147731 |       147731 |        97714 |        97714 |        97714 |        97714 |       237043 |       237043 |       237043 |       237043 |
dtlb.writebacks                                  0 |            0 |            0 |            0 |            0 |            0 |            0 |            0 |            0 |            0 |            0 |            0 |            0 |            0 |            0 |            0 |            0 |            0 |            0 |            0 |           74 |           74 |           74 |           74 |         5042 |         5042 |         5042 |         5042 |        14210 |        14210 |        14210 |        14210 |       126487 |       126487 |       126487 |       126487 |        91892 |        91892 |        91892 |        91892 |       221415 |       221415 |       221415 |       221415 |
dtlb.invalidations                               0 |            0 |            0 |            0 |            0 |            0 |            0 |            0 |            0 |            0 |            0 |            0 |            0 |            0 |            0 |            0 |            0 |            0 |            0 |            0 |            0 |            0 |            0 |            0 |            0 |            0 |            0 |            0 |            0 |            0 |            0 |            0 |            0 |            0 |            0 |            0 |            0 |            0 |            0 |            0 |            0 |            0 |            0 |            0 |
dtlb.miss_rate                              0.0001 |       0.0001 |       0.0001 |       0.0001 |       0.0000 |       0.0000 |       0.0000 |       0.0000 |       0.0000 |       0.0000 |       0.0000 |       0.0000 |       0.0000 |       0.0000 |       0.0000 |       0.0000 |       0.0000 |       0.0000 |       0.0000 |       0.0000 |       0.0000 |       0.0000 |       0.0000 |       0.0000 |       0.0003 |       0.0003 |       0.0003 |       0.0003 |       0.0004 |       0.0004 |       0.0004 |       0.0004 |       0.0016 |       0.0016 |       0.0016 |       0.0016 |       0.0005 |       0.0005 |       0.0005 |       0.0005 |       0.0006 |       0.0006 |       0.0006 |       0.0006 |
dtlb.repl_rate                              0.0000 |       0.0000 |       0.0000 |       0.0000 |       0.0000 |       0.0000 |       0.0000 |       0.0000 |       0.0000 |       0.0000 |       0.0000 |       0.0000 |       0.0000 |       0.0000 |       0.0000 |       0.0000 |       0.0000 |       0.0000 |       0.0000 |       0.0000 |       0.0000 |       0.0000 |       0.0000 |       0.0000 |       0.0003 |       0.0003 |       0.0003 |       0.0003 |       0.0003 |       0.0003 |       0.0003 |       0.0003 |       0.0016 |       0.0016 |       0.0016 |       0.0016 |       0.0005 |       0.0005 |       0.0005 |       0.0005 |       0.0006 |       0.0006 |       0.0006 |       0.0006 |
dtlb.wb_rate                                0.0000 |       0.0000 |       0.0000 |       0.0000 |       0.0000 |       0.0000 |       0.0000 |       0.0000 |       0.0000 |       0.0000 |       0.0000 |       0.0000 |       0.0000 |       0.0000 |       0.0000 |       0.0000 |       0.0000 |       0.0000 |       0.0000 |       0.0000 |       0.0000 |       0.0000 |       0.0000 |       0.0000 |       0.0003 |       0.0003 |       0.0003 |       0.0003 |       0.0003 |       0.0003 |       0.0003 |       0.0003 |       0.0014 |       0.0014 |       0.0014 |       0.0014 |       0.0005 |       0.0005 |       0.0005 |       0.0005 |       0.0006 |       0.0006 |       0.0006 |       0.0006 |
dtlb.inv_rate                               0.0000 |       0.0000 |       0.0000 |       0.0000 |       0.0000 |       0.0000 |       0.0000 |       0.0000 |       0.0000 |       0.0000 |       0.0000 |       0.0000 |       0.0000 |       0.0000 |       0.0000 |       0.0000 |       0.0000 |       0.0000 |       0.0000 |       0.0000 |       0.0000 |       0.0000 |       0.0000 |       0.0000 |       0.0000 |       0.0000 |       0.0000 |       0.0000 |       0.0000 |       0.0000 |       0.0000 |       0.0000 |       0.0000 |       0.0000 |       0.0000 |       0.0000 |       0.0000 |       0.0000 |       0.0000 |       0.0000 |       0.0000 |       0.0000 |       0.0000 |       0.0000 |
ld_text_base                            0x00400000 |   0x00400000 |   0x00400000 |   0x00400000 |   0x00400000 |   0x00400000 |   0x00400000 |   0x00400000 |   0x00400000 |   0x00400000 |   0x00400000 |   0x00400000 |   0x00400000 |   0x00400000 |   0x00400000 |   0x00400000 |   0x00400000 |   0x00400000 |   0x00400000 |   0x00400000 |   0x00400000 |   0x00400000 |   0x00400000 |   0x00400000 |   0x00400000 |   0x00400000 |   0x00400000 |   0x00400000 |   0x00400000 |   0x00400000 |   0x00400000 |   0x00400000 |   0x00400000 |   0x00400000 |   0x00400000 |   0x00400000 |   0x00400000 |   0x00400000 |   0x00400000 |   0x00400000 |   0x00400000 |   0x00400000 |   0x00400000 |   0x00400000 |
ld_text_size                                 71456 |        71456 |        71456 |        71456 |        71488 |        71488 |        71488 |        71488 |        71504 |        71504 |        71504 |        71504 |        71520 |        71520 |        71520 |        71520 |        71520 |        71520 |        71520 |        71520 |        71520 |        71520 |        71520 |        71520 |        71520 |        71520 |        71520 |        71520 |        71520 |        71520 |        71520 |        71520 |        71520 |        71520 |        71520 |        71520 |        71520 |        71520 |        71520 |        71520 |        71520 |        71520 |        71520 |        71520 |
ld_data_base                            0x10000000 |   0x10000000 |   0x10000000 |   0x10000000 |   0x10000000 |   0x10000000 |   0x10000000 |   0x10000000 |   0x10000000 |   0x10000000 |   0x10000000 |   0x10000000 |   0x10000000 |   0x10000000 |   0x10000000 |   0x10000000 |   0x10000000 |   0x10000000 |   0x10000000 |   0x10000000 |   0x10000000 |   0x10000000 |   0x10000000 |   0x10000000 |   0x10000000 |   0x10000000 |   0x10000000 |   0x10000000 |   0x10000000 |   0x10000000 |   0x10000000 |   0x10000000 |   0x10000000 |   0x10000000 |   0x10000000 |   0x10000000 |   0x10000000 |   0x10000000 |   0x10000000 |   0x10000000 |   0x10000000 |   0x10000000 |   0x10000000 |   0x10000000 |
ld_data_size                                  8192 |         8192 |         8192 |         8192 |         8192 |         8192 |         8192 |         8192 |         8192 |         8192 |         8192 |         8192 |         8192 |         8192 |         8192 |         8192 |         8192 |         8192 |         8192 |         8192 |         8192 |         8192 |         8192 |         8192 |         8192 |         8192 |         8192 |         8192 |         8192 |         8192 |         8192 |         8192 |         8192 |         8192 |         8192 |         8192 |         8192 |         8192 |         8192 |         8192 |         8192 |         8192 |         8192 |         8192 |
ld_stack_base                           0x7fffc000 |   0x7fffc000 |   0x7fffc000 |   0x7fffc000 |   0x7fffc000 |   0x7fffc000 |   0x7fffc000 |   0x7fffc000 |   0x7fffc000 |   0x7fffc000 |   0x7fffc000 |   0x7fffc000 |   0x7fffc000 |   0x7fffc000 |   0x7fffc000 |   0x7fffc000 |   0x7fffc000 |   0x7fffc000 |   0x7fffc000 |   0x7fffc000 |   0x7fffc000 |   0x7fffc000 |   0x7fffc000 |   0x7fffc000 |   0x7fffc000 |   0x7fffc000 |   0x7fffc000 |   0x7fffc000 |   0x7fffc000 |   0x7fffc000 |   0x7fffc000 |   0x7fffc000 |   0x7fffc000 |   0x7fffc000 |   0x7fffc000 |   0x7fffc000 |   0x7fffc000 |   0x7fffc000 |   0x7fffc000 |   0x7fffc000 |   0x7fffc000 |   0x7fffc000 |   0x7fffc000 |   0x7fffc000 |
ld_stack_size                                16384 |        16384 |        16384 |        16384 |        16384 |        16384 |        16384 |        16384 |        16384 |        16384 |        16384 |        16384 |        16384 |        16384 |        16384 |        16384 |        16384 |        16384 |        16384 |        16384 |        16384 |        16384 |        16384 |        16384 |        16384 |        16384 |        16384 |        16384 |        16384 |        16384 |        16384 |        16384 |        16384 |        16384 |        16384 |        16384 |        16384 |        16384 |        16384 |        16384 |        16384 |        16384 |        16384 |        16384 |
ld_prog_entry                           0x00400140 |   0x00400140 |   0x00400140 |   0x00400140 |   0x00400140 |   0x00400140 |   0x00400140 |   0x00400140 |   0x00400140 |   0x00400140 |   0x00400140 |   0x00400140 |   0x00400140 |   0x00400140 |   0x00400140 |   0x00400140 |   0x00400140 |   0x00400140 |   0x00400140 |   0x00400140 |   0x00400140 |   0x00400140 |   0x00400140 |   0x00400140 |   0x00400140 |   0x00400140 |   0x00400140 |   0x00400140 |   0x00400140 |   0x00400140 |   0x00400140 |   0x00400140 |   0x00400140 |   0x00400140 |   0x00400140 |   0x00400140 |   0x00400140 |   0x00400140 |   0x00400140 |   0x00400140 |   0x00400140 |   0x00400140 |   0x00400140 |   0x00400140 |
ld_environ_base                         0x7fff8000 |   0x7fff8000 |   0x7fff8000 |   0x7fff8000 |   0x7fff8000 |   0x7fff8000 |   0x7fff8000 |   0x7fff8000 |   0x7fff8000 |   0x7fff8000 |   0x7fff8000 |   0x7fff8000 |   0x7fff8000 |   0x7fff8000 |   0x7fff8000 |   0x7fff8000 |   0x7fff8000 |   0x7fff8000 |   0x7fff8000 |   0x7fff8000 |   0x7fff8000 |   0x7fff8000 |   0x7fff8000 |   0x7fff8000 |   0x7fff8000 |   0x7fff8000 |   0x7fff8000 |   0x7fff8000 |   0x7fff8000 |   0x7fff8000 |   0x7fff8000 |   0x7fff8000 |   0x7fff8000 |   0x7fff8000 |   0x7fff8000 |   0x7fff8000 |   0x7fff8000 |   0x7fff8000 |   0x7fff8000 |   0x7fff8000 |   0x7fff8000 |   0x7fff8000 |   0x7fff8000 |   0x7fff8000 |
ld_target_big_endian                             0 |            0 |            0 |            0 |            0 |            0 |            0 |            0 |            0 |            0 |            0 |            0 |            0 |            0 |            0 |            0 |            0 |            0 |            0 |            0 |            0 |            0 |            0 |            0 |            0 |            0 |            0 |            0 |            0 |            0 |            0 |            0 |            0 |            0 |            0 |            0 |            0 |            0 |            0 |            0 |            0 |            0 |            0 |            0 |
mem.page_count                                  29 |           29 |           29 |           29 |           33 |           33 |           33 |           33 |           41 |           41 |           41 |           41 |           57 |           57 |           57 |           57 |           89 |           89 |           89 |           89 |          153 |          153 |          153 |          153 |          281 |          281 |          281 |          281 |          537 |          537 |          537 |          537 |         1049 |         1049 |         1049 |         1049 |         2073 |         2073 |         2073 |         2073 |         4121 |         4121 |         4121 |         4121 |
mem.page_mem                                  116k |         116k |         116k |         116k |         132k |         132k |         132k |         132k |         164k |         164k |         164k |         164k |         228k |         228k |         228k |         228k |         356k |         356k |         356k |         356k |         612k |         612k |         612k |         612k |        1124k |        1124k |        1124k |        1124k |        2148k |        2148k |        2148k |        2148k |        4196k |        4196k |        4196k |        4196k |        8292k |        8292k |        8292k |        8292k |       16484k |       16484k |       16484k |       16484k |
mem.ptab_misses                                 29 |           29 |           29 |           29 |           33 |           33 |           33 |           33 |           41 |           41 |           41 |           41 |           57 |           57 |           57 |           57 |           89 |           89 |           89 |           89 |          153 |          153 |          153 |          153 |          281 |          281 |          281 |          281 |          537 |          537 |          537 |          537 |         1049 |         1049 |         1049 |         1049 |         2073 |         2073 |         2073 |         2073 |         4121 |         4121 |         4121 |         4121 |
mem.ptab_accesses                          4793978 |      4793978 |      4793978 |      4793978 |     10247944 |     10247944 |     10247944 |     10247944 |     21928756 |     21928756 |     21928756 |     21928756 |     46896912 |     46896912 |     46896912 |     46896912 |    100297954 |    100297954 |    100297954 |    100297954 |    215978356 |    215978356 |    215978356 |    215978356 |    446298280 |    446298280 |    446298280 |    446298280 |    959100012 |    959100012 |    959100012 |    959100012 |   2029904174 |   2029904174 |   2029904174 |   2029904174 |   4371973310 |   4371973310 |   4371973310 |   4371973310 |   9107491524 |   9107491524 |   9107491524 |   9107491524 |
mem.ptab_miss_rate                          0.0000 |       0.0000 |       0.0000 |       0.0000 |       0.0000 |       0.0000 |       0.0000 |       0.0000 |       0.0000 |       0.0000 |       0.0000 |       0.0000 |       0.0000 |       0.0000 |       0.0000 |       0.0000 |       0.0000 |       0.0000 |       0.0000 |       0.0000 |       0.0000 |       0.0000 |       0.0000 |       0.0000 |       0.0000 |       0.0000 |       0.0000 |       0.0000 |       0.0000 |       0.0000 |       0.0000 |       0.0000 |       0.0000 |       0.0000 |       0.0000 |       0.0000 |       0.0000 |       0.0000 |       0.0000 |       0.0000 |       0.0000 |       0.0000 |       0.0000 |       0.0000 |
-------------------------------------------------------------------------------------------------
sim-bpred                                     4096 |         4096 |         4096 |         4096 |         4096 |         4096 |         4096 |         8192 |         8192 |         8192 |         8192 |         8192 |         8192 |         8192 |        16384 |        16384 |        16384 |        16384 |        16384 |        16384 |        16384 |        32768 |        32768 |        32768 |        32768 |        32768 |        32768 |        32768 |        65536 |        65536 |        65536 |        65536 |        65536 |        65536 |        65536 |       131072 |       131072 |       131072 |       131072 |       131072 |       131072 |       131072 |       262144 |       262144 |       262144 |       262144 |       262144 |       262144 |       262144 |       524288 |       524288 |       524288 |       524288 |       524288 |       524288 |       524288 |      1048576 |      1048576 |      1048576 |      1048576 |      1048576 |      1048576 |      1048576 |      2097152 |      2097152 |      2097152 |      2097152 |      2097152 |      2097152 |      2097152 |      4194304 |      4194304 |      4194304 |      4194304 |      4194304 |      4194304 |      4194304 |
-bpred bimod -bpred:bimod 512
-bpred bimod -bpred:bimod 1024
-bpred bimod -bpred:bimod 2048
-bpred 2lev -bpred:2lev 1 512 10 1
-bpred 2lev -bpred:2lev 1 1024 10 1
-bpred 2lev -bpred:2lev 1 2048 10 1
-bpred 2lev -bpred:2lev 1 4096 10 1
-------------------------------------------------------------------------------------------------
sim_num_insn                                986545 |       986545 |       986545 |       986545 |       986545 |       986545 |       986545 |      2226994 |      2226994 |      2226994 |      2226994 |      2226994 |      2226994 |      2226994 |      4884422 |      4884422 |      4884422 |      4884422 |      4884422 |      4884422 |      4884422 |     10566254 |     10566254 |     10566254 |     10566254 |     10566254 |     10566254 |     10566254 |     22737074 |     22737074 |     22737074 |     22737074 |     22737074 |     22737074 |     22737074 |     49097312 |     49097312 |     49097312 |     49097312 |     49097312 |     49097312 |     49097312 |    101547334 |    101547334 |    101547334 |    101547334 |    101547334 |    101547334 |    101547334 |    218424240 |    218424240 |    218424240 |    218424240 |    218424240 |    218424240 |    218424240 |    462487991 |    462487991 |    462487991 |    462487991 |    462487991 |    462487991 |    462487991 |    996633700 |    996633700 |    996633700 |    996633700 |    996633700 |    996633700 |    996633700 |   2076298068 |   2076298068 |   2076298068 |   2076298068 |   2076298068 |   2076298068 |   2076298068 |
sim_num_refs                                185775 |       185775 |       185775 |       185775 |       185775 |       185775 |       185775 |       415380 |       415380 |       415380 |       415380 |       415380 |       415380 |       415380 |       908114 |       908114 |       908114 |       908114 |       908114 |       908114 |       908114 |      1962944 |      1962944 |      1962944 |      1962944 |      1962944 |      1962944 |      1962944 |      4190753 |      4190753 |      4190753 |      4190753 |      4190753 |      4190753 |      4190753 |      9048334 |      9048334 |      9048334 |      9048334 |      9048334 |      9048334 |      9048334 |     18783964 |     18783964 |     18783964 |     18783964 |     18783964 |     18783964 |     18783964 |     40382442 |     40382442 |     40382442 |     40382442 |     40382442 |     40382442 |     40382442 |     85559869 |     85559869 |     85559869 |     85559869 |     85559869 |     85559869 |     85559869 |    184108715 |    184108715 |    184108715 |    184108715 |    184108715 |    184108715 |    184108715 |    384150478 |    384150478 |    384150478 |    384150478 |    384150478 |    384150478 |    384150478 |
sim_elapsed_time                                 1 |            1 |            1 |            1 |            1 |            1 |            1 |            1 |            1 |            1 |            1 |            1 |            1 |            1 |            1 |            1 |            1 |            1 |            1 |            1 |            1 |            1 |            1 |            1 |            2 |            1 |            1 |            1 |            3 |            2 |            3 |            2 |            3 |            2 |            3 |            5 |            5 |            6 |            5 |            6 |            5 |            6 |           11 |           11 |           12 |           11 |           11 |           12 |           11 |           24 |           24 |           24 |           24 |           24 |           25 |           24 |           51 |           51 |           50 |           52 |           51 |           52 |           51 |          109 |          109 |          109 |          111 |          112 |          110 |          110 |          228 |          226 |          227 |          232 |          231 |          230 |          231 |
sim_inst_rate                          986545.0000 |  986545.0000 |  986545.0000 |  986545.0000 |  986545.0000 |  986545.0000 |  986545.0000 | 2226994.0000 | 2226994.0000 | 2226994.0000 | 2226994.0000 | 2226994.0000 | 2226994.0000 | 2226994.0000 | 4884422.0000 | 4884422.0000 | 4884422.0000 | 4884422.0000 | 4884422.0000 | 4884422.0000 | 4884422.0000 |10566254.0000 |10566254.0000 |10566254.0000 | 5283127.0000 |10566254.0000 |10566254.0000 |10566254.0000 | 7579024.6667 |11368537.0000 | 7579024.6667 |11368537.0000 | 7579024.6667 |11368537.0000 | 7579024.6667 | 9819462.4000 | 9819462.4000 | 8182885.3333 | 9819462.4000 | 8182885.3333 | 9819462.4000 | 8182885.3333 | 9231575.8182 | 9231575.8182 | 8462277.8333 | 9231575.8182 | 9231575.8182 | 8462277.8333 | 9231575.8182 | 9101010.0000 | 9101010.0000 | 9101010.0000 | 9101010.0000 | 9101010.0000 | 8736969.6000 | 9101010.0000 | 9068391.9804 | 9068391.9804 | 9249759.8200 | 8893999.8269 | 9068391.9804 | 8893999.8269 | 9068391.9804 | 9143428.4404 | 9143428.4404 | 9143428.4404 | 8978681.9820 | 8898515.1786 | 9060306.3636 | 9060306.3636 | 9106570.4737 | 9187159.5929 | 9146687.5242 | 8949560.6379 | 8988303.3247 | 9027382.9043 | 8988303.3247 |
sim_num_branches                            164143 |       164143 |       164143 |       164143 |       164143 |       164143 |       164143 |       370885 |       370885 |       370885 |       370885 |       370885 |       370885 |       370885 |       813788 |       813788 |       813788 |       813788 |       813788 |       813788 |       813788 |      1760762 |      1760762 |      1760762 |      1760762 |      1760762 |      1760762 |      1760762 |      3789232 |      3789232 |      3789232 |      3789232 |      3789232 |      3789232 |      3789232 |      8182605 |      8182605 |      8182605 |      8182605 |      8182605 |      8182605 |      8182605 |     16924277 |     16924277 |     16924277 |     16924277 |     16924277 |     16924277 |     16924277 |     36403760 |     36403760 |     36403760 |     36403760 |     36403760 |     36403760 |     36403760 |     77081051 |     77081051 |     77081051 |     77081051 |     77081051 |     77081051 |     77081051 |    166105338 |    166105338 |    166105338 |    166105338 |    166105338 |    166105338 |    166105338 |    346049397 |    346049397 |    346049397 |    346049397 |    346049397 |    346049397 |    346049397 |
sim_IPB                                     6.0103 |       6.0103 |       6.0103 |       6.0103 |       6.0103 |       6.0103 |       6.0103 |       6.0045 |       6.0045 |       6.0045 |       6.0045 |       6.0045 |       6.0045 |       6.0045 |       6.0021 |       6.0021 |       6.0021 |       6.0021 |       6.0021 |       6.0021 |       6.0021 |       6.0010 |       6.0010 |       6.0010 |       6.0010 |       6.0010 |       6.0010 |       6.0010 |       6.0004 |       6.0004 |       6.0004 |       6.0004 |       6.0004 |       6.0004 |       6.0004 |       6.0002 |       6.0002 |       6.0002 |       6.0002 |       6.0002 |       6.0002 |       6.0002 |       6.0001 |       6.0001 |       6.0001 |       6.0001 |       6.0001 |       6.0001 |       6.0001 |       6.0000 |       6.0000 |       6.0000 |       6.0000 |       6.0000 |       6.0000 |       6.0000 |       6.0000 |       6.0000 |       6.0000 |       6.0000 |       6.0000 |       6.0000 |       6.0000 |       6.0000 |       6.0000 |       6.0000 |       6.0000 |       6.0000 |       6.0000 |       6.0000 |       6.0000 |       6.0000 |       6.0000 |       6.0000 |       6.0000 |       6.0000 |       6.0000 |
bpred_bimod.lookups                         164143 |       164143 |       164143 |xxxxxxxxxxxxx |xxxxxxxxxxxxx |xxxxxxxxxxxxx |xxxxxxxxxxxxx |       370885 |       370885 |       370885 |xxxxxxxxxxxxx |xxxxxxxxxxxxx |xxxxxxxxxxxxx |xxxxxxxxxxxxx |       813788 |       813788 |       813788 |xxxxxxxxxxxxx |xxxxxxxxxxxxx |xxxxxxxxxxxxx |xxxxxxxxxxxxx |      1760762 |      1760762 |      1760762 |xxxxxxxxxxxxx |xxxxxxxxxxxxx |xxxxxxxxxxxxx |xxxxxxxxxxxxx |      3789232 |      3789232 |      3789232 |xxxxxxxxxxxxx |xxxxxxxxxxxxx |xxxxxxxxxxxxx |xxxxxxxxxxxxx |      8182605 |      8182605 |      8182605 |xxxxxxxxxxxxx |xxxxxxxxxxxxx |xxxxxxxxxxxxx |xxxxxxxxxxxxx |     16924277 |     16924277 |     16924277 |xxxxxxxxxxxxx |xxxxxxxxxxxxx |xxxxxxxxxxxxx |xxxxxxxxxxxxx |     36403760 |     36403760 |     36403760 |xxxxxxxxxxxxx |xxxxxxxxxxxxx |xxxxxxxxxxxxx |xxxxxxxxxxxxx |     77081051 |     77081051 |     77081051 |xxxxxxxxxxxxx |xxxxxxxxxxxxx |xxxxxxxxxxxxx |xxxxxxxxxxxxx |    166105338 |    166105338 |    166105338 |xxxxxxxxxxxxx |xxxxxxxxxxxxx |xxxxxxxxxxxxx |xxxxxxxxxxxxx |    346049397 |    346049397 |    346049397 |
bpred_bimod.updates                         164143 |       164143 |       164143 |xxxxxxxxxxxxx |xxxxxxxxxxxxx |xxxxxxxxxxxxx |xxxxxxxxxxxxx |       370885 |       370885 |       370885 |xxxxxxxxxxxxx |xxxxxxxxxxxxx |xxxxxxxxxxxxx |xxxxxxxxxxxxx |       813788 |       813788 |       813788 |xxxxxxxxxxxxx |xxxxxxxxxxxxx |xxxxxxxxxxxxx |xxxxxxxxxxxxx |      1760762 |      1760762 |      1760762 |xxxxxxxxxxxxx |xxxxxxxxxxxxx |xxxxxxxxxxxxx |xxxxxxxxxxxxx |      3789232 |      3789232 |      3789232 |xxxxxxxxxxxxx |xxxxxxxxxxxxx |xxxxxxxxxxxxx |xxxxxxxxxxxxx |      8182605 |      8182605 |      8182605 |xxxxxxxxxxxxx |xxxxxxxxxxxxx |xxxxxxxxxxxxx |xxxxxxxxxxxxx |     16924277 |     16924277 |     16924277 |xxxxxxxxxxxxx |xxxxxxxxxxxxx |xxxxxxxxxxxxx |xxxxxxxxxxxxx |     36403760 |     36403760 |     36403760 |xxxxxxxxxxxxx |xxxxxxxxxxxxx |xxxxxxxxxxxxx |xxxxxxxxxxxxx |     77081051 |     77081051 |     77081051 |xxxxxxxxxxxxx |xxxxxxxxxxxxx |xxxxxxxxxxxxx |xxxxxxxxxxxxx |    166105338 |    166105338 |    166105338 |xxxxxxxxxxxxx |xxxxxxxxxxxxx |xxxxxxxxxxxxx |xxxxxxxxxxxxx |    346049397 |    346049397 |    346049397 |
bpred_bimod.addr_hits                       127607 |       127610 |       127611 |xxxxxxxxxxxxx |xxxxxxxxxxxxx |xxxxxxxxxxxxx |xxxxxxxxxxxxx |       291523 |       291526 |       291526 |xxxxxxxxxxxxx |xxxxxxxxxxxxx |xxxxxxxxxxxxx |xxxxxxxxxxxxx |       633982 |       633985 |       633986 |xxxxxxxxxxxxx |xxxxxxxxxxxxx |xxxxxxxxxxxxx |xxxxxxxxxxxxx |      1370623 |      1370626 |      1370625 |xxxxxxxxxxxxx |xxxxxxxxxxxxx |xxxxxxxxxxxxx |xxxxxxxxxxxxx |      2984962 |      2984965 |      2984965 |xxxxxxxxxxxxx |xxxxxxxxxxxxx |xxxxxxxxxxxxx |xxxxxxxxxxxxx |      6430200 |      6430203 |      6430203 |xxxxxxxxxxxxx |xxxxxxxxxxxxx |xxxxxxxxxxxxx |xxxxxxxxxxxxx |     13131620 |     13131623 |     13131623 |xxxxxxxxxxxxx |xxxxxxxxxxxxx |xxxxxxxxxxxxx |xxxxxxxxxxxxx |     28189238 |     28189241 |     28189240 |xxxxxxxxxxxxx |xxxxxxxxxxxxx |xxxxxxxxxxxxx |xxxxxxxxxxxxx |     59476254 |     59476257 |     59476256 |xxxxxxxxxxxxx |xxxxxxxxxxxxx |xxxxxxxxxxxxx |xxxxxxxxxxxxx |    129086897 |    129086900 |    129086899 |xxxxxxxxxxxxx |xxxxxxxxxxxxx |xxxxxxxxxxxxx |xxxxxxxxxxxxx |    268741453 |    268741456 |    268741455 |
bpred_bimod.dir_hits                        127704 |       127705 |       127705 |xxxxxxxxxxxxx |xxxxxxxxxxxxx |xxxxxxxxxxxxx |xxxxxxxxxxxxx |       291620 |       291622 |       291621 |xxxxxxxxxxxxx |xxxxxxxxxxxxx |xxxxxxxxxxxxx |xxxxxxxxxxxxx |       634078 |       634080 |       634080 |xxxxxxxxxxxxx |xxxxxxxxxxxxx |xxxxxxxxxxxxx |xxxxxxxxxxxxx |      1370717 |      1370719 |      1370718 |xxxxxxxxxxxxx |xxxxxxxxxxxxx |xxxxxxxxxxxxx |xxxxxxxxxxxxx |      2985056 |      2985058 |      2985058 |xxxxxxxxxxxxx |xxxxxxxxxxxxx |xxxxxxxxxxxxx |xxxxxxxxxxxxx |      6430296 |      6430298 |      6430298 |xxxxxxxxxxxxx |xxxxxxxxxxxxx |xxxxxxxxxxxxx |xxxxxxxxxxxxx |     13131715 |     13131717 |     13131717 |xxxxxxxxxxxxx |xxxxxxxxxxxxx |xxxxxxxxxxxxx |xxxxxxxxxxxxx |     28189333 |     28189335 |     28189334 |xxxxxxxxxxxxx |xxxxxxxxxxxxx |xxxxxxxxxxxxx |xxxxxxxxxxxxx |     59476349 |     59476351 |     59476350 |xxxxxxxxxxxxx |xxxxxxxxxxxxx |xxxxxxxxxxxxx |xxxxxxxxxxxxx |    129086993 |    129086995 |    129086994 |xxxxxxxxxxxxx |xxxxxxxxxxxxx |xxxxxxxxxxxxx |xxxxxxxxxxxxx |    268741548 |    268741550 |    268741549 |
bpred_bimod.misses                           36439 |        36438 |        36438 |xxxxxxxxxxxxx |xxxxxxxxxxxxx |xxxxxxxxxxxxx |xxxxxxxxxxxxx |        79265 |        79263 |        79264 |xxxxxxxxxxxxx |xxxxxxxxxxxxx |xxxxxxxxxxxxx |xxxxxxxxxxxxx |       179710 |       179708 |       179708 |xxxxxxxxxxxxx |xxxxxxxxxxxxx |xxxxxxxxxxxxx |xxxxxxxxxxxxx |       390045 |       390043 |       390044 |xxxxxxxxxxxxx |xxxxxxxxxxxxx |xxxxxxxxxxxxx |xxxxxxxxxxxxx |       804176 |       804174 |       804174 |xxxxxxxxxxxxx |xxxxxxxxxxxxx |xxxxxxxxxxxxx |xxxxxxxxxxxxx |      1752309 |      1752307 |      1752307 |xxxxxxxxxxxxx |xxxxxxxxxxxxx |xxxxxxxxxxxxx |xxxxxxxxxxxxx |      3792562 |      3792560 |      3792560 |xxxxxxxxxxxxx |xxxxxxxxxxxxx |xxxxxxxxxxxxx |xxxxxxxxxxxxx |      8214427 |      8214425 |      8214426 |xxxxxxxxxxxxx |xxxxxxxxxxxxx |xxxxxxxxxxxxx |xxxxxxxxxxxxx |     17604702 |     17604700 |     17604701 |xxxxxxxxxxxxx |xxxxxxxxxxxxx |xxxxxxxxxxxxx |xxxxxxxxxxxxx |     37018345 |     37018343 |     37018344 |xxxxxxxxxxxxx |xxxxxxxxxxxxx |xxxxxxxxxxxxx |xxxxxxxxxxxxx |     77307849 |     77307847 |     77307848 |
bpred_bimod.jr_hits                             57 |           57 |           57 |xxxxxxxxxxxxx |xxxxxxxxxxxxx |xxxxxxxxxxxxx |xxxxxxxxxxxxx |           57 |           57 |           57 |xxxxxxxxxxxxx |xxxxxxxxxxxxx |xxxxxxxxxxxxx |xxxxxxxxxxxxx |           57 |           57 |           57 |xxxxxxxxxxxxx |xxxxxxxxxxxxx |xxxxxxxxxxxxx |xxxxxxxxxxxxx |           57 |           57 |           57 |xxxxxxxxxxxxx |xxxxxxxxxxxxx |xxxxxxxxxxxxx |xxxxxxxxxxxxx |           57 |           57 |           57 |xxxxxxxxxxxxx |xxxxxxxxxxxxx |xxxxxxxxxxxxx |xxxxxxxxxxxxx |           57 |           57 |           57 |xxxxxxxxxxxxx |xxxxxxxxxxxxx |xxxxxxxxxxxxx |xxxxxxxxxxxxx |           57 |           57 |           57 |xxxxxxxxxxxxx |xxxxxxxxxxxxx |xxxxxxxxxxxxx |xxxxxxxxxxxxx |           57 |           57 |           57 |xxxxxxxxxxxxx |xxxxxxxxxxxxx |xxxxxxxxxxxxx |xxxxxxxxxxxxx |           57 |           57 |           57 |xxxxxxxxxxxxx |xxxxxxxxxxxxx |xxxxxxxxxxxxx |xxxxxxxxxxxxx |           57 |           57 |           57 |xxxxxxxxxxxxx |xxxxxxxxxxxxx |xxxxxxxxxxxxx |xxxxxxxxxxxxx |           57 |           57 |           57 |
bpred_bimod.jr_seen                             58 |           58 |           58 |xxxxxxxxxxxxx |xxxxxxxxxxxxx |xxxxxxxxxxxxx |xxxxxxxxxxxxx |           58 |           58 |           58 |xxxxxxxxxxxxx |xxxxxxxxxxxxx |xxxxxxxxxxxxx |xxxxxxxxxxxxx |           58 |           58 |           58 |xxxxxxxxxxxxx |xxxxxxxxxxxxx |xxxxxxxxxxxxx |xxxxxxxxxxxxx |           58 |           58 |           58 |xxxxxxxxxxxxx |xxxxxxxxxxxxx |xxxxxxxxxxxxx |xxxxxxxxxxxxx |           58 |           58 |           58 |xxxxxxxxxxxxx |xxxxxxxxxxxxx |xxxxxxxxxxxxx |xxxxxxxxxxxxx |           58 |           58 |           58 |xxxxxxxxxxxxx |xxxxxxxxxxxxx |xxxxxxxxxxxxx |xxxxxxxxxxxxx |           58 |           58 |           58 |xxxxxxxxxxxxx |xxxxxxxxxxxxx |xxxxxxxxxxxxx |xxxxxxxxxxxxx |           58 |           58 |           58 |xxxxxxxxxxxxx |xxxxxxxxxxxxx |xxxxxxxxxxxxx |xxxxxxxxxxxxx |           58 |           58 |           58 |xxxxxxxxxxxxx |xxxxxxxxxxxxx |xxxxxxxxxxxxx |xxxxxxxxxxxxx |           58 |           58 |           58 |xxxxxxxxxxxxx |xxxxxxxxxxxxx |xxxxxxxxxxxxx |xxxxxxxxxxxxx |           58 |           58 |           58 |
bpred_bimod.jr_non_ras_hits.PP                   0 |            0 |            0 |xxxxxxxxxxxxx |xxxxxxxxxxxxx |xxxxxxxxxxxxx |xxxxxxxxxxxxx |            0 |            0 |            0 |xxxxxxxxxxxxx |xxxxxxxxxxxxx |xxxxxxxxxxxxx |xxxxxxxxxxxxx |            0 |            0 |            0 |xxxxxxxxxxxxx |xxxxxxxxxxxxx |xxxxxxxxxxxxx |xxxxxxxxxxxxx |            0 |            0 |            0 |xxxxxxxxxxxxx |xxxxxxxxxxxxx |xxxxxxxxxxxxx |xxxxxxxxxxxxx |            0 |            0 |            0 |xxxxxxxxxxxxx |xxxxxxxxxxxxx |xxxxxxxxxxxxx |xxxxxxxxxxxxx |            0 |            0 |            0 |xxxxxxxxxxxxx |xxxxxxxxxxxxx |xxxxxxxxxxxxx |xxxxxxxxxxxxx |            0 |            0 |            0 |xxxxxxxxxxxxx |xxxxxxxxxxxxx |xxxxxxxxxxxxx |xxxxxxxxxxxxx |            0 |            0 |            0 |xxxxxxxxxxxxx |xxxxxxxxxxxxx |xxxxxxxxxxxxx |xxxxxxxxxxxxx |            0 |            0 |            0 |xxxxxxxxxxxxx |xxxxxxxxxxxxx |xxxxxxxxxxxxx |xxxxxxxxxxxxx |            0 |            0 |            0 |xxxxxxxxxxxxx |xxxxxxxxxxxxx |xxxxxxxxxxxxx |xxxxxxxxxxxxx |            0 |            0 |            0 |
bpred_bimod.jr_non_ras_seen.PP                   0 |            0 |            0 |xxxxxxxxxxxxx |xxxxxxxxxxxxx |xxxxxxxxxxxxx |xxxxxxxxxxxxx |            0 |            0 |            0 |xxxxxxxxxxxxx |xxxxxxxxxxxxx |xxxxxxxxxxxxx |xxxxxxxxxxxxx |            0 |            0 |            0 |xxxxxxxxxxxxx |xxxxxxxxxxxxx |xxxxxxxxxxxxx |xxxxxxxxxxxxx |            0 |            0 |            0 |xxxxxxxxxxxxx |xxxxxxxxxxxxx |xxxxxxxxxxxxx |xxxxxxxxxxxxx |            0 |            0 |            0 |xxxxxxxxxxxxx |xxxxxxxxxxxxx |xxxxxxxxxxxxx |xxxxxxxxxxxxx |            0 |            0 |            0 |xxxxxxxxxxxxx |xxxxxxxxxxxxx |xxxxxxxxxxxxx |xxxxxxxxxxxxx |            0 |            0 |            0 |xxxxxxxxxxxxx |xxxxxxxxxxxxx |xxxxxxxxxxxxx |xxxxxxxxxxxxx |            0 |            0 |            0 |xxxxxxxxxxxxx |xxxxxxxxxxxxx |xxxxxxxxxxxxx |xxxxxxxxxxxxx |            0 |            0 |            0 |xxxxxxxxxxxxx |xxxxxxxxxxxxx |xxxxxxxxxxxxx |xxxxxxxxxxxxx |            0 |            0 |            0 |xxxxxxxxxxxxx |xxxxxxxxxxxxx |xxxxxxxxxxxxx |xxxxxxxxxxxxx |            0 |            0 |            0 |
bpred_bimod.bpred_addr_rate                 0.7774 |       0.7774 |       0.7774 |xxxxxxxxxxxxx |xxxxxxxxxxxxx |xxxxxxxxxxxxx |xxxxxxxxxxxxx |       0.7860 |       0.7860 |       0.7860 |xxxxxxxxxxxxx |xxxxxxxxxxxxx |xxxxxxxxxxxxx |xxxxxxxxxxxxx |       0.7791 |       0.7791 |       0.7791 |xxxxxxxxxxxxx |xxxxxxxxxxxxx |xxxxxxxxxxxxx |xxxxxxxxxxxxx |       0.7784 |       0.7784 |       0.7784 |xxxxxxxxxxxxx |xxxxxxxxxxxxx |xxxxxxxxxxxxx |xxxxxxxxxxxxx |       0.7877 |       0.7877 |       0.7877 |xxxxxxxxxxxxx |xxxxxxxxxxxxx |xxxxxxxxxxxxx |xxxxxxxxxxxxx |       0.7858 |       0.7858 |       0.7858 |xxxxxxxxxxxxx |xxxxxxxxxxxxx |xxxxxxxxxxxxx |xxxxxxxxxxxxx |       0.7759 |       0.7759 |       0.7759 |xxxxxxxxxxxxx |xxxxxxxxxxxxx |xxxxxxxxxxxxx |xxxxxxxxxxxxx |       0.7743 |       0.7743 |       0.7743 |xxxxxxxxxxxxx |xxxxxxxxxxxxx |xxxxxxxxxxxxx |xxxxxxxxxxxxx |       0.7716 |       0.7716 |       0.7716 |xxxxxxxxxxxxx |xxxxxxxxxxxxx |xxxxxxxxxxxxx |xxxxxxxxxxxxx |       0.7771 |       0.7771 |       0.7771 |xxxxxxxxxxxxx |xxxxxxxxxxxxx |xxxxxxxxxxxxx |xxxxxxxxxxxxx |       0.7766 |       0.7766 |       0.7766 |
bpred_bimod.bpred_dir_rate                  0.7780 |       0.7780 |       0.7780 |xxxxxxxxxxxxx |xxxxxxxxxxxxx |xxxxxxxxxxxxx |xxxxxxxxxxxxx |       0.7863 |       0.7863 |       0.7863 |xxxxxxxxxxxxx |xxxxxxxxxxxxx |xxxxxxxxxxxxx |xxxxxxxxxxxxx |       0.7792 |       0.7792 |       0.7792 |xxxxxxxxxxxxx |xxxxxxxxxxxxx |xxxxxxxxxxxxx |xxxxxxxxxxxxx |       0.7785 |       0.7785 |       0.7785 |xxxxxxxxxxxxx |xxxxxxxxxxxxx |xxxxxxxxxxxxx |xxxxxxxxxxxxx |       0.7878 |       0.7878 |       0.7878 |xxxxxxxxxxxxx |xxxxxxxxxxxxx |xxxxxxxxxxxxx |xxxxxxxxxxxxx |       0.7858 |       0.7858 |       0.7858 |xxxxxxxxxxxxx |xxxxxxxxxxxxx |xxxxxxxxxxxxx |xxxxxxxxxxxxx |       0.7759 |       0.7759 |       0.7759 |xxxxxxxxxxxxx |xxxxxxxxxxxxx |xxxxxxxxxxxxx |xxxxxxxxxxxxx |       0.7744 |       0.7744 |       0.7744 |xxxxxxxxxxxxx |xxxxxxxxxxxxx |xxxxxxxxxxxxx |xxxxxxxxxxxxx |       0.7716 |       0.7716 |       0.7716 |xxxxxxxxxxxxx |xxxxxxxxxxxxx |xxxxxxxxxxxxx |xxxxxxxxxxxxx |       0.7771 |       0.7771 |       0.7771 |xxxxxxxxxxxxx |xxxxxxxxxxxxx |xxxxxxxxxxxxx |xxxxxxxxxxxxx |       0.7766 |       0.7766 |       0.7766 |
bpred_bimod.bpred_jr_rate                   0.9828 |       0.9828 |       0.9828 |xxxxxxxxxxxxx |xxxxxxxxxxxxx |xxxxxxxxxxxxx |xxxxxxxxxxxxx |       0.9828 |       0.9828 |       0.9828 |xxxxxxxxxxxxx |xxxxxxxxxxxxx |xxxxxxxxxxxxx |xxxxxxxxxxxxx |       0.9828 |       0.9828 |       0.9828 |xxxxxxxxxxxxx |xxxxxxxxxxxxx |xxxxxxxxxxxxx |xxxxxxxxxxxxx |       0.9828 |       0.9828 |       0.9828 |xxxxxxxxxxxxx |xxxxxxxxxxxxx |xxxxxxxxxxxxx |xxxxxxxxxxxxx |       0.9828 |       0.9828 |       0.9828 |xxxxxxxxxxxxx |xxxxxxxxxxxxx |xxxxxxxxxxxxx |xxxxxxxxxxxxx |       0.9828 |       0.9828 |       0.9828 |xxxxxxxxxxxxx |xxxxxxxxxxxxx |xxxxxxxxxxxxx |xxxxxxxxxxxxx |       0.9828 |       0.9828 |       0.9828 |xxxxxxxxxxxxx |xxxxxxxxxxxxx |xxxxxxxxxxxxx |xxxxxxxxxxxxx |       0.9828 |       0.9828 |       0.9828 |xxxxxxxxxxxxx |xxxxxxxxxxxxx |xxxxxxxxxxxxx |xxxxxxxxxxxxx |       0.9828 |       0.9828 |       0.9828 |xxxxxxxxxxxxx |xxxxxxxxxxxxx |xxxxxxxxxxxxx |xxxxxxxxxxxxx |       0.9828 |       0.9828 |       0.9828 |xxxxxxxxxxxxx |xxxxxxxxxxxxx |xxxxxxxxxxxxx |xxxxxxxxxxxxx |       0.9828 |       0.9828 |       0.9828 |
bpred_bimod.bpred_jr_non_ras_rate.PP       <error: |      <error: |      <error: |xxxxxxxxxxxxx |xxxxxxxxxxxxx |xxxxxxxxxxxxx |xxxxxxxxxxxxx |      <error: |      <error: |      <error: |xxxxxxxxxxxxx |xxxxxxxxxxxxx |xxxxxxxxxxxxx |xxxxxxxxxxxxx |      <error: |      <error: |      <error: |xxxxxxxxxxxxx |xxxxxxxxxxxxx |xxxxxxxxxxxxx |xxxxxxxxxxxxx |      <error: |      <error: |      <error: |xxxxxxxxxxxxx |xxxxxxxxxxxxx |xxxxxxxxxxxxx |xxxxxxxxxxxxx |      <error: |      <error: |      <error: |xxxxxxxxxxxxx |xxxxxxxxxxxxx |xxxxxxxxxxxxx |xxxxxxxxxxxxx |      <error: |      <error: |      <error: |xxxxxxxxxxxxx |xxxxxxxxxxxxx |xxxxxxxxxxxxx |xxxxxxxxxxxxx |      <error: |      <error: |      <error: |xxxxxxxxxxxxx |xxxxxxxxxxxxx |xxxxxxxxxxxxx |xxxxxxxxxxxxx |      <error: |      <error: |      <error: |xxxxxxxxxxxxx |xxxxxxxxxxxxx |xxxxxxxxxxxxx |xxxxxxxxxxxxx |      <error: |      <error: |      <error: |xxxxxxxxxxxxx |xxxxxxxxxxxxx |xxxxxxxxxxxxx |xxxxxxxxxxxxx |      <error: |      <error: |      <error: |xxxxxxxxxxxxx |xxxxxxxxxxxxx |xxxxxxxxxxxxx |xxxxxxxxxxxxx |      <error: |      <error: |      <error: |
bpred_bimod.retstack_pushes                     60 |           60 |           60 |xxxxxxxxxxxxx |xxxxxxxxxxxxx |xxxxxxxxxxxxx |xxxxxxxxxxxxx |           60 |           60 |           60 |xxxxxxxxxxxxx |xxxxxxxxxxxxx |xxxxxxxxxxxxx |xxxxxxxxxxxxx |           60 |           60 |           60 |xxxxxxxxxxxxx |xxxxxxxxxxxxx |xxxxxxxxxxxxx |xxxxxxxxxxxxx |           60 |           60 |           60 |xxxxxxxxxxxxx |xxxxxxxxxxxxx |xxxxxxxxxxxxx |xxxxxxxxxxxxx |           60 |           60 |           60 |xxxxxxxxxxxxx |xxxxxxxxxxxxx |xxxxxxxxxxxxx |xxxxxxxxxxxxx |           60 |           60 |           60 |xxxxxxxxxxxxx |xxxxxxxxxxxxx |xxxxxxxxxxxxx |xxxxxxxxxxxxx |           60 |           60 |           60 |xxxxxxxxxxxxx |xxxxxxxxxxxxx |xxxxxxxxxxxxx |xxxxxxxxxxxxx |           60 |           60 |           60 |xxxxxxxxxxxxx |xxxxxxxxxxxxx |xxxxxxxxxxxxx |xxxxxxxxxxxxx |           60 |           60 |           60 |xxxxxxxxxxxxx |xxxxxxxxxxxxx |xxxxxxxxxxxxx |xxxxxxxxxxxxx |           60 |           60 |           60 |xxxxxxxxxxxxx |xxxxxxxxxxxxx |xxxxxxxxxxxxx |xxxxxxxxxxxxx |           60 |           60 |           60 |
bpred_bimod.retstack_pops                       58 |           58 |           58 |xxxxxxxxxxxxx |xxxxxxxxxxxxx |xxxxxxxxxxxxx |xxxxxxxxxxxxx |           58 |           58 |           58 |xxxxxxxxxxxxx |xxxxxxxxxxxxx |xxxxxxxxxxxxx |xxxxxxxxxxxxx |           58 |           58 |           58 |xxxxxxxxxxxxx |xxxxxxxxxxxxx |xxxxxxxxxxxxx |xxxxxxxxxxxxx |           58 |           58 |           58 |xxxxxxxxxxxxx |xxxxxxxxxxxxx |xxxxxxxxxxxxx |xxxxxxxxxxxxx |           58 |           58 |           58 |xxxxxxxxxxxxx |xxxxxxxxxxxxx |xxxxxxxxxxxxx |xxxxxxxxxxxxx |           58 |           58 |           58 |xxxxxxxxxxxxx |xxxxxxxxxxxxx |xxxxxxxxxxxxx |xxxxxxxxxxxxx |           58 |           58 |           58 |xxxxxxxxxxxxx |xxxxxxxxxxxxx |xxxxxxxxxxxxx |xxxxxxxxxxxxx |           58 |           58 |           58 |xxxxxxxxxxxxx |xxxxxxxxxxxxx |xxxxxxxxxxxxx |xxxxxxxxxxxxx |           58 |           58 |           58 |xxxxxxxxxxxxx |xxxxxxxxxxxxx |xxxxxxxxxxxxx |xxxxxxxxxxxxx |           58 |           58 |           58 |xxxxxxxxxxxxx |xxxxxxxxxxxxx |xxxxxxxxxxxxx |xxxxxxxxxxxxx |           58 |           58 |           58 |
bpred_bimod.used_ras.PP                         58 |           58 |           58 |xxxxxxxxxxxxx |xxxxxxxxxxxxx |xxxxxxxxxxxxx |xxxxxxxxxxxxx |           58 |           58 |           58 |xxxxxxxxxxxxx |xxxxxxxxxxxxx |xxxxxxxxxxxxx |xxxxxxxxxxxxx |           58 |           58 |           58 |xxxxxxxxxxxxx |xxxxxxxxxxxxx |xxxxxxxxxxxxx |xxxxxxxxxxxxx |           58 |           58 |           58 |xxxxxxxxxxxxx |xxxxxxxxxxxxx |xxxxxxxxxxxxx |xxxxxxxxxxxxx |           58 |           58 |           58 |xxxxxxxxxxxxx |xxxxxxxxxxxxx |xxxxxxxxxxxxx |xxxxxxxxxxxxx |           58 |           58 |           58 |xxxxxxxxxxxxx |xxxxxxxxxxxxx |xxxxxxxxxxxxx |xxxxxxxxxxxxx |           58 |           58 |           58 |xxxxxxxxxxxxx |xxxxxxxxxxxxx |xxxxxxxxxxxxx |xxxxxxxxxxxxx |           58 |           58 |           58 |xxxxxxxxxxxxx |xxxxxxxxxxxxx |xxxxxxxxxxxxx |xxxxxxxxxxxxx |           58 |           58 |           58 |xxxxxxxxxxxxx |xxxxxxxxxxxxx |xxxxxxxxxxxxx |xxxxxxxxxxxxx |           58 |           58 |           58 |xxxxxxxxxxxxx |xxxxxxxxxxxxx |xxxxxxxxxxxxx |xxxxxxxxxxxxx |           58 |           58 |           58 |
bpred_bimod.ras_hits.PP                         57 |           57 |           57 |xxxxxxxxxxxxx |xxxxxxxxxxxxx |xxxxxxxxxxxxx |xxxxxxxxxxxxx |           57 |           57 |           57 |xxxxxxxxxxxxx |xxxxxxxxxxxxx |xxxxxxxxxxxxx |xxxxxxxxxxxxx |           57 |           57 |           57 |xxxxxxxxxxxxx |xxxxxxxxxxxxx |xxxxxxxxxxxxx |xxxxxxxxxxxxx |           57 |           57 |           57 |xxxxxxxxxxxxx |xxxxxxxxxxxxx |xxxxxxxxxxxxx |xxxxxxxxxxxxx |           57 |           57 |           57 |xxxxxxxxxxxxx |xxxxxxxxxxxxx |xxxxxxxxxxxxx |xxxxxxxxxxxxx |           57 |           57 |           57 |xxxxxxxxxxxxx |xxxxxxxxxxxxx |xxxxxxxxxxxxx |xxxxxxxxxxxxx |           57 |           57 |           57 |xxxxxxxxxxxxx |xxxxxxxxxxxxx |xxxxxxxxxxxxx |xxxxxxxxxxxxx |           57 |           57 |           57 |xxxxxxxxxxxxx |xxxxxxxxxxxxx |xxxxxxxxxxxxx |xxxxxxxxxxxxx |           57 |           57 |           57 |xxxxxxxxxxxxx |xxxxxxxxxxxxx |xxxxxxxxxxxxx |xxxxxxxxxxxxx |           57 |           57 |           57 |xxxxxxxxxxxxx |xxxxxxxxxxxxx |xxxxxxxxxxxxx |xxxxxxxxxxxxx |           57 |           57 |           57 |
bpred_bimod.ras_rate.PP                     0.9828 |       0.9828 |       0.9828 |xxxxxxxxxxxxx |xxxxxxxxxxxxx |xxxxxxxxxxxxx |xxxxxxxxxxxxx |       0.9828 |       0.9828 |       0.9828 |xxxxxxxxxxxxx |xxxxxxxxxxxxx |xxxxxxxxxxxxx |xxxxxxxxxxxxx |       0.9828 |       0.9828 |       0.9828 |xxxxxxxxxxxxx |xxxxxxxxxxxxx |xxxxxxxxxxxxx |xxxxxxxxxxxxx |       0.9828 |       0.9828 |       0.9828 |xxxxxxxxxxxxx |xxxxxxxxxxxxx |xxxxxxxxxxxxx |xxxxxxxxxxxxx |       0.9828 |       0.9828 |       0.9828 |xxxxxxxxxxxxx |xxxxxxxxxxxxx |xxxxxxxxxxxxx |xxxxxxxxxxxxx |       0.9828 |       0.9828 |       0.9828 |xxxxxxxxxxxxx |xxxxxxxxxxxxx |xxxxxxxxxxxxx |xxxxxxxxxxxxx |       0.9828 |       0.9828 |       0.9828 |xxxxxxxxxxxxx |xxxxxxxxxxxxx |xxxxxxxxxxxxx |xxxxxxxxxxxxx |       0.9828 |       0.9828 |       0.9828 |xxxxxxxxxxxxx |xxxxxxxxxxxxx |xxxxxxxxxxxxx |xxxxxxxxxxxxx |       0.9828 |       0.9828 |       0.9828 |xxxxxxxxxxxxx |xxxxxxxxxxxxx |xxxxxxxxxxxxx |xxxxxxxxxxxxx |       0.9828 |       0.9828 |       0.9828 |xxxxxxxxxxxxx |xxxxxxxxxxxxx |xxxxxxxxxxxxx |xxxxxxxxxxxxx |       0.9828 |       0.9828 |       0.9828 |
bpred_2lev.lookups                   xxxxxxxxxxxxx |xxxxxxxxxxxxx |xxxxxxxxxxxxx |       164143 |       164143 |       164143 |       164143 |xxxxxxxxxxxxx |xxxxxxxxxxxxx |xxxxxxxxxxxxx |       370885 |       370885 |       370885 |       370885 |xxxxxxxxxxxxx |xxxxxxxxxxxxx |xxxxxxxxxxxxx |       813788 |       813788 |       813788 |       813788 |xxxxxxxxxxxxx |xxxxxxxxxxxxx |xxxxxxxxxxxxx |      1760762 |      1760762 |      1760762 |      1760762 |xxxxxxxxxxxxx |xxxxxxxxxxxxx |xxxxxxxxxxxxx |      3789232 |      3789232 |      3789232 |      3789232 |xxxxxxxxxxxxx |xxxxxxxxxxxxx |xxxxxxxxxxxxx |      8182605 |      8182605 |      8182605 |      8182605 |xxxxxxxxxxxxx |xxxxxxxxxxxxx |xxxxxxxxxxxxx |     16924277 |     16924277 |     16924277 |     16924277 |xxxxxxxxxxxxx |xxxxxxxxxxxxx |xxxxxxxxxxxxx |     36403760 |     36403760 |     36403760 |     36403760 |xxxxxxxxxxxxx |xxxxxxxxxxxxx |xxxxxxxxxxxxx |     77081051 |     77081051 |     77081051 |     77081051 |xxxxxxxxxxxxx |xxxxxxxxxxxxx |xxxxxxxxxxxxx |    166105338 |    166105338 |    166105338 |    166105338 |xxxxxxxxxxxxx |xxxxxxxxxxxxx |xxxxxxxxxxxxx |    346049397 |    346049397 |    346049397 |    346049397 |
[...]
bpred_2lev.bpred_jr_non_ras_rate.PP  xxxxxxxxxxxxx |xxxxxxxxxxxxx |xxxxxxxxxxxxx |      <error: |      <error: |      <error: |      <error: |xxxxxxxxxxxxx |xxxxxxxxxxxxx |xxxxxxxxxxxxx |      <error: |      <error: |      <error: |      <error: |xxxxxxxxxxxxx |xxxxxxxxxxxxx |xxxxxxxxxxxxx |      <error: |      <error: |      <error: |      <error: |xxxxxxxxxxxxx |xxxxxxxxxxxxx |xxxxxxxxxxxxx |      <error: |      <error: |      <error: |      <error: |xxxxxxxxxxxxx |xxxxxxxxxxxxx |xxxxxxxxxxxxx |      <error: |      <error: |      <error: |      <error: |xxxxxxxxxxxxx |xxxxxxxxxxxxx |xxxxxxxxxxxxx |      <error: |      <error: |      <error: |      <error: |xxxxxxxxxxxxx |xxxxxxxxxxxxx |xxxxxxxxxxxxx |      <error: |      <error: |      <error: |      <error: |xxxxxxxxxxxxx |xxxxxxxxxxxxx |xxxxxxxxxxxxx |      <error: |      <error: |      <error: |      <error: |xxxxxxxxxxxxx |xxxxxxxxxxxxx |xxxxxxxxxxxxx |      <error: |      <error: |      <error: |      <error: |xxxxxxxxxxxxx |xxxxxxxxxxxxx |xxxxxxxxxxxxx |      <error: |      <error: |      <error: |      <error: |xxxxxxxxxxxxx |xxxxxxxxxxxxx |xxxxxxxxxxxxx |      <error: |      <error: |      <error: |      <error: |
bpred_2lev.retstack_pushes           xxxxxxxxxxxxx |xxxxxxxxxxxxx |xxxxxxxxxxxxx |           60 |           60 |           60 |           60 |xxxxxxxxxxxxx |xxxxxxxxxxxxx |xxxxxxxxxxxxx |           60 |           60 |           60 |           60 |xxxxxxxxxxxxx |xxxxxxxxxxxxx |xxxxxxxxxxxxx |           60 |           60 |           60 |           60 |xxxxxxxxxxxxx |xxxxxxxxxxxxx |xxxxxxxxxxxxx |           60 |           60 |           60 |           60 |xxxxxxxxxxxxx |xxxxxxxxxxxxx |xxxxxxxxxxxxx |           60 |           60 |           60 |           60 |xxxxxxxxxxxxx |xxxxxxxxxxxxx |xxxxxxxxxxxxx |           60 |           60 |           60 |           60 |xxxxxxxxxxxxx |xxxxxxxxxxxxx |xxxxxxxxxxxxx |           60 |           60 |           60 |           60 |xxxxxxxxxxxxx |xxxxxxxxxxxxx |xxxxxxxxxxxxx |           60 |           60 |           60 |           60 |xxxxxxxxxxxxx |xxxxxxxxxxxxx |xxxxxxxxxxxxx |           60 |           60 |           60 |           60 |xxxxxxxxxxxxx |xxxxxxxxxxxxx |xxxxxxxxxxxxx |           60 |           60 |           60 |           60 |xxxxxxxxxxxxx |xxxxxxxxxxxxx |xxxxxxxxxxxxx |           60 |           60 |           60 |           60 |
bpred_2lev.retstack_pops             xxxxxxxxxxxxx |xxxxxxxxxxxxx |xxxxxxxxxxxxx |           58 |           58 |           58 |           58 |xxxxxxxxxxxxx |xxxxxxxxxxxxx |xxxxxxxxxxxxx |           58 |           58 |           58 |           58 |xxxxxxxxxxxxx |xxxxxxxxxxxxx |xxxxxxxxxxxxx |           58 |           58 |           58 |           58 |xxxxxxxxxxxxx |xxxxxxxxxxxxx |xxxxxxxxxxxxx |           58 |           58 |           58 |           58 |xxxxxxxxxxxxx |xxxxxxxxxxxxx |xxxxxxxxxxxxx |           58 |           58 |           58 |           58 |xxxxxxxxxxxxx |xxxxxxxxxxxxx |xxxxxxxxxxxxx |           58 |           58 |           58 |           58 |xxxxxxxxxxxxx |xxxxxxxxxxxxx |xxxxxxxxxxxxx |           58 |           58 |           58 |           58 |xxxxxxxxxxxxx |xxxxxxxxxxxxx |xxxxxxxxxxxxx |           58 |           58 |           58 |           58 |xxxxxxxxxxxxx |xxxxxxxxxxxxx |xxxxxxxxxxxxx |           58 |           58 |           58 |           58 |xxxxxxxxxxxxx |xxxxxxxxxxxxx |xxxxxxxxxxxxx |           58 |           58 |           58 |           58 |xxxxxxxxxxxxx |xxxxxxxxxxxxx |xxxxxxxxxxxxx |           58 |           58 |           58 |           58 |
bpred_2lev.used_ras.PP               xxxxxxxxxxxxx |xxxxxxxxxxxxx |xxxxxxxxxxxxx |           58 |           58 |           58 |           58 |xxxxxxxxxxxxx |xxxxxxxxxxxxx |xxxxxxxxxxxxx |           58 |           58 |           58 |           58 |xxxxxxxxxxxxx |xxxxxxxxxxxxx |xxxxxxxxxxxxx |           58 |           58 |           58 |           58 |xxxxxxxxxxxxx |xxxxxxxxxxxxx |xxxxxxxxxxxxx |           58 |           58 |           58 |           58 |xxxxxxxxxxxxx |xxxxxxxxxxxxx |xxxxxxxxxxxxx |           58 |           58 |           58 |           58 |xxxxxxxxxxxxx |xxxxxxxxxxxxx |xxxxxxxxxxxxx |           58 |           58 |           58 |           58 |xxxxxxxxxxxxx |xxxxxxxxxxxxx |xxxxxxxxxxxxx |           58 |           58 |           58 |           58 |xxxxxxxxxxxxx |xxxxxxxxxxxxx |xxxxxxxxxxxxx |           58 |           58 |           58 |           58 |xxxxxxxxxxxxx |xxxxxxxxxxxxx |xxxxxxxxxxxxx |           58 |           58 |           58 |           58 |xxxxxxxxxxxxx |xxxxxxxxxxxxx |xxxxxxxxxxxxx |           58 |           58 |           58 |           58 |xxxxxxxxxxxxx |xxxxxxxxxxxxx |xxxxxxxxxxxxx |           58 |           58 |           58 |           58 |
bpred_2lev.ras_hits.PP               xxxxxxxxxxxxx |xxxxxxxxxxxxx |xxxxxxxxxxxxx |           57 |           57 |           57 |           57 |xxxxxxxxxxxxx |xxxxxxxxxxxxx |xxxxxxxxxxxxx |           57 |           57 |           57 |           57 |xxxxxxxxxxxxx |xxxxxxxxxxxxx |xxxxxxxxxxxxx |           57 |           57 |           57 |           57 |xxxxxxxxxxxxx |xxxxxxxxxxxxx |xxxxxxxxxxxxx |           57 |           57 |           57 |           57 |xxxxxxxxxxxxx |xxxxxxxxxxxxx |xxxxxxxxxxxxx |           57 |           57 |           57 |           57 |xxxxxxxxxxxxx |xxxxxxxxxxxxx |xxxxxxxxxxxxx |           57 |           57 |           57 |           57 |xxxxxxxxxxxxx |xxxxxxxxxxxxx |xxxxxxxxxxxxx |           57 |           57 |           57 |           57 |xxxxxxxxxxxxx |xxxxxxxxxxxxx |xxxxxxxxxxxxx |           57 |           57 |           57 |           57 |xxxxxxxxxxxxx |xxxxxxxxxxxxx |xxxxxxxxxxxxx |           57 |           57 |           57 |           57 |xxxxxxxxxxxxx |xxxxxxxxxxxxx |xxxxxxxxxxxxx |           57 |           57 |           57 |           57 |xxxxxxxxxxxxx |xxxxxxxxxxxxx |xxxxxxxxxxxxx |           57 |           57 |           57 |           57 |
bpred_2lev.ras_rate.PP               xxxxxxxxxxxxx |xxxxxxxxxxxxx |xxxxxxxxxxxxx |       0.9828 |       0.9828 |       0.9828 |       0.9828 |xxxxxxxxxxxxx |xxxxxxxxxxxxx |xxxxxxxxxxxxx |       0.9828 |       0.9828 |       0.9828 |       0.9828 |xxxxxxxxxxxxx |xxxxxxxxxxxxx |xxxxxxxxxxxxx |       0.9828 |       0.9828 |       0.9828 |       0.9828 |xxxxxxxxxxxxx |xxxxxxxxxxxxx |xxxxxxxxxxxxx |       0.9828 |       0.9828 |       0.9828 |       0.9828 |xxxxxxxxxxxxx |xxxxxxxxxxxxx |xxxxxxxxxxxxx |       0.9828 |       0.9828 |       0.9828 |       0.9828 |xxxxxxxxxxxxx |xxxxxxxxxxxxx |xxxxxxxxxxxxx |       0.9828 |       0.9828 |       0.9828 |       0.9828 |xxxxxxxxxxxxx |xxxxxxxxxxxxx |xxxxxxxxxxxxx |       0.9828 |       0.9828 |       0.9828 |       0.9828 |xxxxxxxxxxxxx |xxxxxxxxxxxxx |xxxxxxxxxxxxx |       0.9828 |       0.9828 |       0.9828 |       0.9828 |xxxxxxxxxxxxx |xxxxxxxxxxxxx |xxxxxxxxxxxxx |       0.9828 |       0.9828 |       0.9828 |       0.9828 |xxxxxxxxxxxxx |xxxxxxxxxxxxx |xxxxxxxxxxxxx |       0.9828 |       0.9828 |       0.9828 |       0.9828 |xxxxxxxxxxxxx |xxxxxxxxxxxxx |xxxxxxxxxxxxx |       0.9828 |       0.9828 |       0.9828 |       0.9828 |

Command list: 
	sslittle-na-sstrix-gcc -Wall -O3 -funroll-loops -finline-functions  -DRANDOM_SIZE=4096 -DOFFSET=2 -DSORT=shellsort sorts/shellsort713347639.c simpleMain.c -o shellsort1230817420
	sim-cache -cache:dl1 dl1:256:32:1:l -cache:dl2 dl2:131072:32:1:l -cache:il1 il1:256:32:1:l -cache:il2 dl2 shellsort1230817420
	sim-cache -cache:dl1 dl1:256:32:1:l -cache:dl2 dl2:65536:32:1:l -cache:il1 il1:256:32:1:l -cache:il2 dl2 shellsort1230817420
	sim-cache -cache:dl1 dl1:1:32:256:l -cache:dl2 dl2:1:32:131072:l -cache:il1 il1:1:32:256:l -cache:il2 dl2 shellsort1230817420
	sim-cache -cache:dl1 dl1:1:32:256:l -cache:dl2 dl2:1:32:65536:l -cache:il1 il1:1:32:256:l -cache:il2 dl2 shellsort1230817420
	sim-bpred -bpred bimod -bpred:bimod 512 shellsort1230817420
	sim-bpred -bpred bimod -bpred:bimod 1024 shellsort1230817420
	sim-bpred -bpred bimod -bpred:bimod 2048 shellsort1230817420
	sim-bpred -bpred 2lev -bpred:2lev 1 512 10 1 shellsort1230817420
	sim-bpred -bpred 2lev -bpred:2lev 1 1024 10 1 shellsort1230817420
	sim-bpred -bpred 2lev -bpred:2lev 1 2048 10 1 shellsort1230817420
	sim-bpred -bpred 2lev -bpred:2lev 1 4096 10 1 shellsort1230817420
	sslittle-na-sstrix-gcc -Wall -O3 -funroll-loops -finline-functions  -DRANDOM_SIZE=8192 -DOFFSET=2 -DSORT=shellsort sorts/shellsort713347639.c simpleMain.c -o shellsort1230817420
	sim-cache -cache:dl1 dl1:256:32:1:l -cache:dl2 dl2:131072:32:1:l -cache:il1 il1:256:32:1:l -cache:il2 dl2 shellsort1230817420
	sim-cache -cache:dl1 dl1:256:32:1:l -cache:dl2 dl2:65536:32:1:l -cache:il1 il1:256:32:1:l -cache:il2 dl2 shellsort1230817420
	sim-cache -cache:dl1 dl1:1:32:256:l -cache:dl2 dl2:1:32:131072:l -cache:il1 il1:1:32:256:l -cache:il2 dl2 shellsort1230817420
	sim-cache -cache:dl1 dl1:1:32:256:l -cache:dl2 dl2:1:32:65536:l -cache:il1 il1:1:32:256:l -cache:il2 dl2 shellsort1230817420
	sim-bpred -bpred bimod -bpred:bimod 512 shellsort1230817420
	sim-bpred -bpred bimod -bpred:bimod 1024 shellsort1230817420
	sim-bpred -bpred bimod -bpred:bimod 2048 shellsort1230817420
	sim-bpred -bpred 2lev -bpred:2lev 1 512 10 1 shellsort1230817420
	sim-bpred -bpred 2lev -bpred:2lev 1 1024 10 1 shellsort1230817420
	sim-bpred -bpred 2lev -bpred:2lev 1 2048 10 1 shellsort1230817420
	sim-bpred -bpred 2lev -bpred:2lev 1 4096 10 1 shellsort1230817420
	sslittle-na-sstrix-gcc -Wall -O3 -funroll-loops -finline-functions  -DRANDOM_SIZE=16384 -DOFFSET=2 -DSORT=shellsort sorts/shellsort713347639.c simpleMain.c -o shellsort1230817420
	sim-cache -cache:dl1 dl1:256:32:1:l -cache:dl2 dl2:131072:32:1:l -cache:il1 il1:256:32:1:l -cache:il2 dl2 shellsort1230817420
	sim-cache -cache:dl1 dl1:256:32:1:l -cache:dl2 dl2:65536:32:1:l -cache:il1 il1:256:32:1:l -cache:il2 dl2 shellsort1230817420
	sim-cache -cache:dl1 dl1:1:32:256:l -cache:dl2 dl2:1:32:131072:l -cache:il1 il1:1:32:256:l -cache:il2 dl2 shellsort1230817420
	sim-cache -cache:dl1 dl1:1:32:256:l -cache:dl2 dl2:1:32:65536:l -cache:il1 il1:1:32:256:l -cache:il2 dl2 shellsort1230817420
	sim-bpred -bpred bimod -bpred:bimod 512 shellsort1230817420
	sim-bpred -bpred bimod -bpred:bimod 1024 shellsort1230817420
	sim-bpred -bpred bimod -bpred:bimod 2048 shellsort1230817420
	sim-bpred -bpred 2lev -bpred:2lev 1 512 10 1 shellsort1230817420
	sim-bpred -bpred 2lev -bpred:2lev 1 1024 10 1 shellsort1230817420
	sim-bpred -bpred 2lev -bpred:2lev 1 2048 10 1 shellsort1230817420
	sim-bpred -bpred 2lev -bpred:2lev 1 4096 10 1 shellsort1230817420
	sslittle-na-sstrix-gcc -Wall -O3 -funroll-loops -finline-functions  -DRANDOM_SIZE=32768 -DOFFSET=2 -DSORT=shellsort sorts/shellsort713347639.c simpleMain.c -o shellsort1230817420
	sim-cache -cache:dl1 dl1:256:32:1:l -cache:dl2 dl2:131072:32:1:l -cache:il1 il1:256:32:1:l -cache:il2 dl2 shellsort1230817420
	sim-cache -cache:dl1 dl1:256:32:1:l -cache:dl2 dl2:65536:32:1:l -cache:il1 il1:256:32:1:l -cache:il2 dl2 shellsort1230817420
	sim-cache -cache:dl1 dl1:1:32:256:l -cache:dl2 dl2:1:32:131072:l -cache:il1 il1:1:32:256:l -cache:il2 dl2 shellsort1230817420
	sim-cache -cache:dl1 dl1:1:32:256:l -cache:dl2 dl2:1:32:65536:l -cache:il1 il1:1:32:256:l -cache:il2 dl2 shellsort1230817420
	sim-bpred -bpred bimod -bpred:bimod 512 shellsort1230817420
	sim-bpred -bpred bimod -bpred:bimod 1024 shellsort1230817420
	sim-bpred -bpred bimod -bpred:bimod 2048 shellsort1230817420
	sim-bpred -bpred 2lev -bpred:2lev 1 512 10 1 shellsort1230817420
	sim-bpred -bpred 2lev -bpred:2lev 1 1024 10 1 shellsort1230817420
	sim-bpred -bpred 2lev -bpred:2lev 1 2048 10 1 shellsort1230817420
	sim-bpred -bpred 2lev -bpred:2lev 1 4096 10 1 shellsort1230817420
	sslittle-na-sstrix-gcc -Wall -O3 -funroll-loops -finline-functions  -DRANDOM_SIZE=65536 -DOFFSET=2 -DSORT=shellsort sorts/shellsort713347639.c simpleMain.c -o shellsort1230817420
	sim-cache -cache:dl1 dl1:256:32:1:l -cache:dl2 dl2:131072:32:1:l -cache:il1 il1:256:32:1:l -cache:il2 dl2 shellsort1230817420
	sim-cache -cache:dl1 dl1:256:32:1:l -cache:dl2 dl2:65536:32:1:l -cache:il1 il1:256:32:1:l -cache:il2 dl2 shellsort1230817420
	sim-cache -cache:dl1 dl1:1:32:256:l -cache:dl2 dl2:1:32:131072:l -cache:il1 il1:1:32:256:l -cache:il2 dl2 shellsort1230817420
	sim-cache -cache:dl1 dl1:1:32:256:l -cache:dl2 dl2:1:32:65536:l -cache:il1 il1:1:32:256:l -cache:il2 dl2 shellsort1230817420
	sim-bpred -bpred bimod -bpred:bimod 512 shellsort1230817420
	sim-bpred -bpred bimod -bpred:bimod 1024 shellsort1230817420
	sim-bpred -bpred bimod -bpred:bimod 2048 shellsort1230817420
	sim-bpred -bpred 2lev -bpred:2lev 1 512 10 1 shellsort1230817420
	sim-bpred -bpred 2lev -bpred:2lev 1 1024 10 1 shellsort1230817420
	sim-bpred -bpred 2lev -bpred:2lev 1 2048 10 1 shellsort1230817420
	sim-bpred -bpred 2lev -bpred:2lev 1 4096 10 1 shellsort1230817420
	sslittle-na-sstrix-gcc -Wall -O3 -funroll-loops -finline-functions  -DRANDOM_SIZE=131072 -DOFFSET=2 -DSORT=shellsort sorts/shellsort713347639.c simpleMain.c -o shellsort1230817420
	sim-cache -cache:dl1 dl1:256:32:1:l -cache:dl2 dl2:131072:32:1:l -cache:il1 il1:256:32:1:l -cache:il2 dl2 shellsort1230817420
	sim-cache -cache:dl1 dl1:256:32:1:l -cache:dl2 dl2:65536:32:1:l -cache:il1 il1:256:32:1:l -cache:il2 dl2 shellsort1230817420
	sim-cache -cache:dl1 dl1:1:32:256:l -cache:dl2 dl2:1:32:131072:l -cache:il1 il1:1:32:256:l -cache:il2 dl2 shellsort1230817420
	sim-cache -cache:dl1 dl1:1:32:256:l -cache:dl2 dl2:1:32:65536:l -cache:il1 il1:1:32:256:l -cache:il2 dl2 shellsort1230817420
	sim-bpred -bpred bimod -bpred:bimod 512 shellsort1230817420
	sim-bpred -bpred bimod -bpred:bimod 1024 shellsort1230817420
	sim-bpred -bpred bimod -bpred:bimod 2048 shellsort1230817420
	sim-bpred -bpred 2lev -bpred:2lev 1 512 10 1 shellsort1230817420
	sim-bpred -bpred 2lev -bpred:2lev 1 1024 10 1 shellsort1230817420
	sim-bpred -bpred 2lev -bpred:2lev 1 2048 10 1 shellsort1230817420
	sim-bpred -bpred 2lev -bpred:2lev 1 4096 10 1 shellsort1230817420
	sslittle-na-sstrix-gcc -Wall -O3 -funroll-loops -finline-functions  -DRANDOM_SIZE=262144 -DOFFSET=2 -DSORT=shellsort sorts/shellsort713347639.c simpleMain.c -o shellsort1230817420
	sim-cache -cache:dl1 dl1:256:32:1:l -cache:dl2 dl2:131072:32:1:l -cache:il1 il1:256:32:1:l -cache:il2 dl2 shellsort1230817420
	sim-cache -cache:dl1 dl1:256:32:1:l -cache:dl2 dl2:65536:32:1:l -cache:il1 il1:256:32:1:l -cache:il2 dl2 shellsort1230817420
	sim-cache -cache:dl1 dl1:1:32:256:l -cache:dl2 dl2:1:32:131072:l -cache:il1 il1:1:32:256:l -cache:il2 dl2 shellsort1230817420
	sim-cache -cache:dl1 dl1:1:32:256:l -cache:dl2 dl2:1:32:65536:l -cache:il1 il1:1:32:256:l -cache:il2 dl2 shellsort1230817420
	sim-bpred -bpred bimod -bpred:bimod 512 shellsort1230817420
	sim-bpred -bpred bimod -bpred:bimod 1024 shellsort1230817420
	sim-bpred -bpred bimod -bpred:bimod 2048 shellsort1230817420
	sim-bpred -bpred 2lev -bpred:2lev 1 512 10 1 shellsort1230817420
	sim-bpred -bpred 2lev -bpred:2lev 1 1024 10 1 shellsort1230817420
	sim-bpred -bpred 2lev -bpred:2lev 1 2048 10 1 shellsort1230817420
	sim-bpred -bpred 2lev -bpred:2lev 1 4096 10 1 shellsort1230817420
	sslittle-na-sstrix-gcc -Wall -O3 -funroll-loops -finline-functions  -DRANDOM_SIZE=524288 -DOFFSET=2 -DSORT=shellsort sorts/shellsort713347639.c simpleMain.c -o shellsort1230817420
	sim-cache -cache:dl1 dl1:256:32:1:l -cache:dl2 dl2:131072:32:1:l -cache:il1 il1:256:32:1:l -cache:il2 dl2 shellsort1230817420
	sim-cache -cache:dl1 dl1:256:32:1:l -cache:dl2 dl2:65536:32:1:l -cache:il1 il1:256:32:1:l -cache:il2 dl2 shellsort1230817420
	sim-cache -cache:dl1 dl1:1:32:256:l -cache:dl2 dl2:1:32:131072:l -cache:il1 il1:1:32:256:l -cache:il2 dl2 shellsort1230817420
	sim-cache -cache:dl1 dl1:1:32:256:l -cache:dl2 dl2:1:32:65536:l -cache:il1 il1:1:32:256:l -cache:il2 dl2 shellsort1230817420
	sim-bpred -bpred bimod -bpred:bimod 512 shellsort1230817420
	sim-bpred -bpred bimod -bpred:bimod 1024 shellsort1230817420
	sim-bpred -bpred bimod -bpred:bimod 2048 shellsort1230817420
	sim-bpred -bpred 2lev -bpred:2lev 1 512 10 1 shellsort1230817420
	sim-bpred -bpred 2lev -bpred:2lev 1 1024 10 1 shellsort1230817420
	sim-bpred -bpred 2lev -bpred:2lev 1 2048 10 1 shellsort1230817420
	sim-bpred -bpred 2lev -bpred:2lev 1 4096 10 1 shellsort1230817420
	sslittle-na-sstrix-gcc -Wall -O3 -funroll-loops -finline-functions  -DRANDOM_SIZE=1048576 -DOFFSET=2 -DSORT=shellsort sorts/shellsort713347639.c simpleMain.c -o shellsort1230817420
	sim-cache -cache:dl1 dl1:256:32:1:l -cache:dl2 dl2:131072:32:1:l -cache:il1 il1:256:32:1:l -cache:il2 dl2 shellsort1230817420
	sim-cache -cache:dl1 dl1:256:32:1:l -cache:dl2 dl2:65536:32:1:l -cache:il1 il1:256:32:1:l -cache:il2 dl2 shellsort1230817420
	sim-cache -cache:dl1 dl1:1:32:256:l -cache:dl2 dl2:1:32:131072:l -cache:il1 il1:1:32:256:l -cache:il2 dl2 shellsort1230817420
	sim-cache -cache:dl1 dl1:1:32:256:l -cache:dl2 dl2:1:32:65536:l -cache:il1 il1:1:32:256:l -cache:il2 dl2 shellsort1230817420
	sim-bpred -bpred bimod -bpred:bimod 512 shellsort1230817420
	sim-bpred -bpred bimod -bpred:bimod 1024 shellsort1230817420
	sim-bpred -bpred bimod -bpred:bimod 2048 shellsort1230817420
	sim-bpred -bpred 2lev -bpred:2lev 1 512 10 1 shellsort1230817420
	sim-bpred -bpred 2lev -bpred:2lev 1 1024 10 1 shellsort1230817420
	sim-bpred -bpred 2lev -bpred:2lev 1 2048 10 1 shellsort1230817420
	sim-bpred -bpred 2lev -bpred:2lev 1 4096 10 1 shellsort1230817420
	sslittle-na-sstrix-gcc -Wall -O3 -funroll-loops -finline-functions  -DRANDOM_SIZE=2097152 -DOFFSET=2 -DSORT=shellsort sorts/shellsort713347639.c simpleMain.c -o shellsort1230817420
	sim-cache -cache:dl1 dl1:256:32:1:l -cache:dl2 dl2:131072:32:1:l -cache:il1 il1:256:32:1:l -cache:il2 dl2 shellsort1230817420
	sim-cache -cache:dl1 dl1:256:32:1:l -cache:dl2 dl2:65536:32:1:l -cache:il1 il1:256:32:1:l -cache:il2 dl2 shellsort1230817420
	sim-cache -cache:dl1 dl1:1:32:256:l -cache:dl2 dl2:1:32:131072:l -cache:il1 il1:1:32:256:l -cache:il2 dl2 shellsort1230817420
	sim-cache -cache:dl1 dl1:1:32:256:l -cache:dl2 dl2:1:32:65536:l -cache:il1 il1:1:32:256:l -cache:il2 dl2 shellsort1230817420
	sim-bpred -bpred bimod -bpred:bimod 512 shellsort1230817420
	sim-bpred -bpred bimod -bpred:bimod 1024 shellsort1230817420
	sim-bpred -bpred bimod -bpred:bimod 2048 shellsort1230817420
	sim-bpred -bpred 2lev -bpred:2lev 1 512 10 1 shellsort1230817420
	sim-bpred -bpred 2lev -bpred:2lev 1 1024 10 1 shellsort1230817420
	sim-bpred -bpred 2lev -bpred:2lev 1 2048 10 1 shellsort1230817420
	sim-bpred -bpred 2lev -bpred:2lev 1 4096 10 1 shellsort1230817420
	sslittle-na-sstrix-gcc -Wall -O3 -funroll-loops -finline-functions  -DRANDOM_SIZE=4194304 -DOFFSET=2 -DSORT=shellsort sorts/shellsort713347639.c simpleMain.c -o shellsort1230817420
	sim-cache -cache:dl1 dl1:256:32:1:l -cache:dl2 dl2:131072:32:1:l -cache:il1 il1:256:32:1:l -cache:il2 dl2 shellsort1230817420
	sim-cache -cache:dl1 dl1:256:32:1:l -cache:dl2 dl2:65536:32:1:l -cache:il1 il1:256:32:1:l -cache:il2 dl2 shellsort1230817420
	sim-cache -cache:dl1 dl1:1:32:256:l -cache:dl2 dl2:1:32:131072:l -cache:il1 il1:1:32:256:l -cache:il2 dl2 shellsort1230817420
	sim-cache -cache:dl1 dl1:1:32:256:l -cache:dl2 dl2:1:32:65536:l -cache:il1 il1:1:32:256:l -cache:il2 dl2 shellsort1230817420
	sim-bpred -bpred bimod -bpred:bimod 512 shellsort1230817420
	sim-bpred -bpred bimod -bpred:bimod 1024 shellsort1230817420
	sim-bpred -bpred bimod -bpred:bimod 2048 shellsort1230817420
	sim-bpred -bpred 2lev -bpred:2lev 1 512 10 1 shellsort1230817420
	sim-bpred -bpred 2lev -bpred:2lev 1 1024 10 1 shellsort1230817420
	sim-bpred -bpred 2lev -bpred:2lev 1 2048 10 1 shellsort1230817420
	sim-bpred -bpred 2lev -bpred:2lev 1 4096 10 1 shellsort1230817420
