Sun Jul 31 10:26:54 2005
Run as: "./do_simple -c random.org8 -o 8 shellsort"
-------------------------------------------------------------------------------------------------
sim-cache                                     4096 |         4096 |         4096 |         4096 |         8192 |         8192 |         8192 |         8192 |        16384 |        16384 |        16384 |        16384 |        32768 |        32768 |        32768 |        32768 |        65536 |        65536 |        65536 |        65536 |       131072 |       131072 |       131072 |       131072 |       262144 |       262144 |       262144 |       262144 |       524288 |       524288 |       524288 |       524288 |      1048576 |      1048576 |      1048576 |      1048576 |      2097152 |      2097152 |      2097152 |      2097152 |      4194304 |      4194304 |      4194304 |      4194304 |
-cache:dl1 dl1:256:32:1:l -cache:dl2 dl2:131072:32:1:l -cache:il1 il1:256:32:1:l -cache:il2 dl2
-cache:dl1 dl1:256:32:1:l -cache:dl2 dl2:65536:32:1:l -cache:il1 il1:256:32:1:l -cache:il2 dl2
-cache:dl1 dl1:1:32:256:l -cache:dl2 dl2:1:32:131072:l -cache:il1 il1:1:32:256:l -cache:il2 dl2
-cache:dl1 dl1:1:32:256:l -cache:dl2 dl2:1:32:65536:l -cache:il1 il1:1:32:256:l -cache:il2 dl2
-------------------------------------------------------------------------------------------------
sim_num_insn                                983923 |       983923 |       983923 |       983923 |      2250706 |      2250706 |      2250706 |      2250706 |      5030060 |      5030060 |      5030060 |      5030060 |     10645388 |     10645388 |     10645388 |     10645388 |     22740128 |     22740128 |     22740128 |     22740128 |     49175990 |     49175990 |     49175990 |     49175990 |    101668114 |    101668114 |    101668114 |    101668114 |    218321538 |    218321538 |    218321538 |    218321538 |    463524989 |    463524989 |    463524989 |    463524989 |    995499478 |    995499478 |    995499478 |    995499478 |   2076165210 |   2076165210 |   2076165210 |   2076165210 |
sim_num_refs                                185338 |       185338 |       185338 |       185338 |       419332 |       419332 |       419332 |       419332 |       932387 |       932387 |       932387 |       932387 |      1976133 |      1976133 |      1976133 |      1976133 |      4191262 |      4191262 |      4191262 |      4191262 |      9061447 |      9061447 |      9061447 |      9061447 |     18804094 |     18804094 |     18804094 |     18804094 |     40365325 |     40365325 |     40365325 |     40365325 |     85732702 |     85732702 |     85732702 |     85732702 |    183919678 |    183919678 |    183919678 |    183919678 |    384128335 |    384128335 |    384128335 |    384128335 |
sim_elapsed_time                                 1 |            1 |            6 |            4 |            1 |            1 |           10 |            5 |            1 |            2 |           15 |            9 |            3 |            2 |           28 |           15 |            5 |            6 |           51 |           27 |           12 |           13 |           95 |           51 |           25 |           26 |          177 |           92 |           55 |           55 |          312 |          142 |          117 |          117 |          463 |          213 |          252 |          252 |          616 |          363 |          528 |          527 |          922 |          669 |
sim_inst_rate                          983923.0000 |  983923.0000 |  163987.1667 |  245980.7500 | 2250706.0000 | 2250706.0000 |  225070.6000 |  450141.2000 | 5030060.0000 | 2515030.0000 |  335337.3333 |  558895.5556 | 3548462.6667 | 5322694.0000 |  380192.4286 |  709692.5333 | 4548025.6000 | 3790021.3333 |  445884.8627 |  842226.9630 | 4097999.1667 | 3782768.4615 |  517642.0000 |  964235.0980 | 4066724.5600 | 3910312.0769 |  574396.1243 | 1105088.1957 | 3969482.5091 | 3969482.5091 |  699748.5192 | 1537475.6197 | 3961752.0427 | 3961752.0427 | 1001133.8855 | 2176173.6573 | 3950394.7540 | 3950394.7540 | 1616070.5812 | 2742422.8044 | 3932131.0795 | 3939592.4288 | 2251806.0846 | 3103385.9641 |
il1.accesses                                983923 |       983923 |       983923 |       983923 |      2250706 |      2250706 |      2250706 |      2250706 |      5030060 |      5030060 |      5030060 |      5030060 |     10645388 |     10645388 |     10645388 |     10645388 |     22740128 |     22740128 |     22740128 |     22740128 |     49175990 |     49175990 |     49175990 |     49175990 |    101668114 |    101668114 |    101668114 |    101668114 |    218321538 |    218321538 |    218321538 |    218321538 |    463524989 |    463524989 |    463524989 |    463524989 |    995499478 |    995499478 |    995499478 |    995499478 |   2076165210 |   2076165210 |   2076165210 |   2076165210 |
il1.hits                                    983547 |       983547 |       983602 |       983602 |      2250330 |      2250330 |      2250385 |      2250385 |      5029674 |      5029674 |      5029733 |      5029733 |     10645010 |     10645010 |     10645065 |     10645065 |     22739750 |     22739750 |     22739805 |     22739805 |     49175612 |     49175612 |     49175667 |     49175667 |    101667736 |    101667736 |    101667791 |    101667791 |    218321160 |    218321160 |    218321215 |    218321215 |    463524611 |    463524611 |    463524666 |    463524666 |    995499100 |    995499100 |    995499155 |    995499155 |   2076164832 |   2076164832 |   2076164887 |   2076164887 |
il1.misses                                     376 |          376 |          321 |          321 |          376 |          376 |          321 |          321 |          386 |          386 |          327 |          327 |          378 |          378 |          323 |          323 |          378 |          378 |          323 |          323 |          378 |          378 |          323 |          323 |          378 |          378 |          323 |          323 |          378 |          378 |          323 |          323 |          378 |          378 |          323 |          323 |          378 |          378 |          323 |          323 |          378 |          378 |          323 |          323 |
il1.replacements                               190 |          190 |           65 |           65 |          190 |          190 |           65 |           65 |          196 |          196 |           71 |           71 |          192 |          192 |           67 |           67 |          192 |          192 |           67 |           67 |          192 |          192 |           67 |           67 |          192 |          192 |           67 |           67 |          192 |          192 |           67 |           67 |          192 |          192 |           67 |           67 |          192 |          192 |           67 |           67 |          192 |          192 |           67 |           67 |
il1.writebacks                                   0 |            0 |            0 |            0 |            0 |            0 |            0 |            0 |            0 |            0 |            0 |            0 |            0 |            0 |            0 |            0 |            0 |            0 |            0 |            0 |            0 |            0 |            0 |            0 |            0 |            0 |            0 |            0 |            0 |            0 |            0 |            0 |            0 |            0 |            0 |            0 |            0 |            0 |            0 |            0 |            0 |            0 |            0 |            0 |
il1.invalidations                                0 |            0 |            0 |            0 |            0 |            0 |            0 |            0 |            0 |            0 |            0 |            0 |            0 |            0 |            0 |            0 |            0 |            0 |            0 |            0 |            0 |            0 |            0 |            0 |            0 |            0 |            0 |            0 |            0 |            0 |            0 |            0 |            0 |            0 |            0 |            0 |            0 |            0 |            0 |            0 |            0 |            0 |            0 |            0 |
il1.miss_rate                               0.0004 |       0.0004 |       0.0003 |       0.0003 |       0.0002 |       0.0002 |       0.0001 |       0.0001 |       0.0001 |       0.0001 |       0.0001 |       0.0001 |       0.0000 |       0.0000 |       0.0000 |       0.0000 |       0.0000 |       0.0000 |       0.0000 |       0.0000 |       0.0000 |       0.0000 |       0.0000 |       0.0000 |       0.0000 |       0.0000 |       0.0000 |       0.0000 |       0.0000 |       0.0000 |       0.0000 |       0.0000 |       0.0000 |       0.0000 |       0.0000 |       0.0000 |       0.0000 |       0.0000 |       0.0000 |       0.0000 |       0.0000 |       0.0000 |       0.0000 |       0.0000 |
il1.repl_rate                               0.0002 |       0.0002 |       0.0001 |       0.0001 |       0.0001 |       0.0001 |       0.0000 |       0.0000 |       0.0000 |       0.0000 |       0.0000 |       0.0000 |       0.0000 |       0.0000 |       0.0000 |       0.0000 |       0.0000 |       0.0000 |       0.0000 |       0.0000 |       0.0000 |       0.0000 |       0.0000 |       0.0000 |       0.0000 |       0.0000 |       0.0000 |       0.0000 |       0.0000 |       0.0000 |       0.0000 |       0.0000 |       0.0000 |       0.0000 |       0.0000 |       0.0000 |       0.0000 |       0.0000 |       0.0000 |       0.0000 |       0.0000 |       0.0000 |       0.0000 |       0.0000 |
il1.wb_rate                                 0.0000 |       0.0000 |       0.0000 |       0.0000 |       0.0000 |       0.0000 |       0.0000 |       0.0000 |       0.0000 |       0.0000 |       0.0000 |       0.0000 |       0.0000 |       0.0000 |       0.0000 |       0.0000 |       0.0000 |       0.0000 |       0.0000 |       0.0000 |       0.0000 |       0.0000 |       0.0000 |       0.0000 |       0.0000 |       0.0000 |       0.0000 |       0.0000 |       0.0000 |       0.0000 |       0.0000 |       0.0000 |       0.0000 |       0.0000 |       0.0000 |       0.0000 |       0.0000 |       0.0000 |       0.0000 |       0.0000 |       0.0000 |       0.0000 |       0.0000 |       0.0000 |
il1.inv_rate                                0.0000 |       0.0000 |       0.0000 |       0.0000 |       0.0000 |       0.0000 |       0.0000 |       0.0000 |       0.0000 |       0.0000 |       0.0000 |       0.0000 |       0.0000 |       0.0000 |       0.0000 |       0.0000 |       0.0000 |       0.0000 |       0.0000 |       0.0000 |       0.0000 |       0.0000 |       0.0000 |       0.0000 |       0.0000 |       0.0000 |       0.0000 |       0.0000 |       0.0000 |       0.0000 |       0.0000 |       0.0000 |       0.0000 |       0.0000 |       0.0000 |       0.0000 |       0.0000 |       0.0000 |       0.0000 |       0.0000 |       0.0000 |       0.0000 |       0.0000 |       0.0000 |
dl1.accesses                                201804 |       201804 |       201804 |       201804 |       452182 |       452182 |       452182 |       452182 |       998005 |       998005 |       998005 |       998005 |      2107287 |      2107287 |      2107287 |      2107287 |      4453488 |      4453488 |      4453488 |      4453488 |      9585817 |      9585817 |      9585817 |      9585817 |     19852752 |     19852752 |     19852752 |     19852752 |     42462559 |     42462559 |     42462559 |     42462559 |     89927088 |     89927088 |     89927088 |     89927088 |    192308368 |    192308368 |    192308368 |    192308368 |    400905633 |    400905633 |    400905633 |    400905633 |
dl1.hits                                    195334 |       195334 |       194940 |       194940 |       435377 |       435377 |       434789 |       434789 |       955391 |       955391 |       954058 |       954058 |      2006353 |      2006353 |      1999537 |      1999537 |      4216051 |      4216051 |      4203710 |      4203710 |      9021491 |      9021491 |      8997630 |      8997630 |     18587230 |     18587230 |     18495091 |     18495091 |     39563254 |     39563254 |     39370980 |     39370980 |     83512515 |     83512515 |     83008173 |     83008173 |    178039087 |    178039087 |    177622186 |    177622186 |    369631190 |    369631190 |    369450382 |    369450382 |
dl1.misses                                    6470 |         6470 |         6864 |         6864 |        16805 |        16805 |        17393 |        17393 |        42614 |        42614 |        43947 |        43947 |       100934 |       100934 |       107750 |       107750 |       237437 |       237437 |       249778 |       249778 |       564326 |       564326 |       588187 |       588187 |      1265522 |      1265522 |      1357661 |      1357661 |      2899305 |      2899305 |      3091579 |      3091579 |      6414573 |      6414573 |      6918915 |      6918915 |     14269281 |     14269281 |     14686182 |     14686182 |     31274443 |     31274443 |     31455251 |     31455251 |
dl1.replacements                              6214 |         6214 |         6608 |         6608 |        16549 |        16549 |        17137 |        17137 |        42358 |        42358 |        43691 |        43691 |       100678 |       100678 |       107494 |       107494 |       237181 |       237181 |       249522 |       249522 |       564070 |       564070 |       587931 |       587931 |      1265266 |      1265266 |      1357405 |      1357405 |      2899049 |      2899049 |      3091323 |      3091323 |      6414317 |      6414317 |      6918659 |      6918659 |     14269025 |     14269025 |     14685926 |     14685926 |     31274187 |     31274187 |     31454995 |     31454995 |
dl1.writebacks                                6096 |         6096 |         6399 |         6399 |        15430 |        15430 |        15916 |        15916 |        38343 |        38343 |        39390 |        39390 |        89775 |        89775 |        95276 |        95276 |       207348 |       207348 |       217793 |       217793 |       487740 |       487740 |       508280 |       508280 |      1089799 |      1089799 |      1165675 |      1165675 |      2481968 |      2481968 |      2643698 |      2643698 |      5482478 |      5482478 |      5895450 |      5895450 |     12147220 |     12147220 |     12494015 |     12494015 |     26581954 |     26581954 |     26703873 |     26703873 |
dl1.invalidations                                0 |            0 |            0 |            0 |            0 |            0 |            0 |            0 |            0 |            0 |            0 |            0 |            0 |            0 |            0 |            0 |            0 |            0 |            0 |            0 |            0 |            0 |            0 |            0 |            0 |            0 |            0 |            0 |            0 |            0 |            0 |            0 |            0 |            0 |            0 |            0 |            0 |            0 |            0 |            0 |            0 |            0 |            0 |            0 |
dl1.miss_rate                               0.0321 |       0.0321 |       0.0340 |       0.0340 |       0.0372 |       0.0372 |       0.0385 |       0.0385 |       0.0427 |       0.0427 |       0.0440 |       0.0440 |       0.0479 |       0.0479 |       0.0511 |       0.0511 |       0.0533 |       0.0533 |       0.0561 |       0.0561 |       0.0589 |       0.0589 |       0.0614 |       0.0614 |       0.0637 |       0.0637 |       0.0684 |       0.0684 |       0.0683 |       0.0683 |       0.0728 |       0.0728 |       0.0713 |       0.0713 |       0.0769 |       0.0769 |       0.0742 |       0.0742 |       0.0764 |       0.0764 |       0.0780 |       0.0780 |       0.0785 |       0.0785 |
dl1.repl_rate                               0.0308 |       0.0308 |       0.0327 |       0.0327 |       0.0366 |       0.0366 |       0.0379 |       0.0379 |       0.0424 |       0.0424 |       0.0438 |       0.0438 |       0.0478 |       0.0478 |       0.0510 |       0.0510 |       0.0533 |       0.0533 |       0.0560 |       0.0560 |       0.0588 |       0.0588 |       0.0613 |       0.0613 |       0.0637 |       0.0637 |       0.0684 |       0.0684 |       0.0683 |       0.0683 |       0.0728 |       0.0728 |       0.0713 |       0.0713 |       0.0769 |       0.0769 |       0.0742 |       0.0742 |       0.0764 |       0.0764 |       0.0780 |       0.0780 |       0.0785 |       0.0785 |
dl1.wb_rate                                 0.0302 |       0.0302 |       0.0317 |       0.0317 |       0.0341 |       0.0341 |       0.0352 |       0.0352 |       0.0384 |       0.0384 |       0.0395 |       0.0395 |       0.0426 |       0.0426 |       0.0452 |       0.0452 |       0.0466 |       0.0466 |       0.0489 |       0.0489 |       0.0509 |       0.0509 |       0.0530 |       0.0530 |       0.0549 |       0.0549 |       0.0587 |       0.0587 |       0.0585 |       0.0585 |       0.0623 |       0.0623 |       0.0610 |       0.0610 |       0.0656 |       0.0656 |       0.0632 |       0.0632 |       0.0650 |       0.0650 |       0.0663 |       0.0663 |       0.0666 |       0.0666 |
dl1.inv_rate                                0.0000 |       0.0000 |       0.0000 |       0.0000 |       0.0000 |       0.0000 |       0.0000 |       0.0000 |       0.0000 |       0.0000 |       0.0000 |       0.0000 |       0.0000 |       0.0000 |       0.0000 |       0.0000 |       0.0000 |       0.0000 |       0.0000 |       0.0000 |       0.0000 |       0.0000 |       0.0000 |       0.0000 |       0.0000 |       0.0000 |       0.0000 |       0.0000 |       0.0000 |       0.0000 |       0.0000 |       0.0000 |       0.0000 |       0.0000 |       0.0000 |       0.0000 |       0.0000 |       0.0000 |       0.0000 |       0.0000 |       0.0000 |       0.0000 |       0.0000 |       0.0000 |
dl2.accesses                                 12942 |        12942 |        13584 |        13584 |        32611 |        32611 |        33630 |        33630 |        81343 |        81343 |        83664 |        83664 |       191087 |       191087 |       203349 |       203349 |       445163 |       445163 |       467894 |       467894 |      1052444 |      1052444 |      1096790 |      1096790 |      2355699 |      2355699 |      2523659 |      2523659 |      5381651 |      5381651 |      5735600 |      5735600 |     11897429 |     11897429 |     12814688 |     12814688 |     26416879 |     26416879 |     27180520 |     27180520 |     57856775 |     57856775 |     58159447 |     58159447 |
dl2.hits                                     11696 |        11696 |        12340 |        12340 |        30853 |        30853 |        31874 |        31874 |        78556 |        78556 |        80877 |        80877 |       186255 |       186255 |       198519 |       198519 |       436235 |       436235 |       458968 |       458968 |      1035324 |      1035324 |      1079672 |      1079672 |      2322195 |      2322195 |      2490157 |      2490157 |      5315379 |      5315306 |      5669330 |      5384690 |     11765546 |      9439586 |     12099507 |     10253889 |     21239963 |     20418029 |     21797453 |     21018817 |     45331572 |     43421055 |     45311541 |     43372359 |
dl2.misses                                    1246 |         1246 |         1244 |         1244 |         1758 |         1758 |         1756 |         1756 |         2787 |         2787 |         2787 |         2787 |         4832 |         4832 |         4830 |         4830 |         8928 |         8928 |         8926 |         8926 |        17120 |        17120 |        17118 |        17118 |        33504 |        33504 |        33502 |        33502 |        66272 |        66345 |        66270 |       350910 |       131883 |      2457843 |       715181 |      2560799 |      5176916 |      5998850 |      5383067 |      6161703 |     12525203 |     14435720 |     12847906 |     14787088 |
dl2.replacements                                62 |           62 |            0 |            0 |           63 |           63 |            0 |            0 |           60 |           60 |            0 |            0 |           63 |           63 |            0 |            0 |           63 |           63 |            0 |            0 |           63 |           63 |            0 |            0 |           63 |           63 |            0 |            0 |           63 |          809 |            0 |       285374 |          811 |      2392307 |       584109 |      2495263 |      5045844 |      5933314 |      5251995 |      6096167 |     12394131 |     14370184 |     12716834 |     14721552 |
dl2.writebacks                                   0 |            0 |            0 |            0 |            0 |            0 |            0 |            0 |            0 |            0 |            0 |            0 |            0 |            0 |            0 |            0 |            0 |            0 |            0 |            0 |            0 |            0 |            0 |            0 |            0 |            0 |            0 |            0 |            0 |          651 |            0 |       285266 |          652 |      2366544 |       584001 |      2445242 |      4994614 |      5655910 |      5152009 |      5788457 |     11838227 |     13354155 |     12101287 |     13631571 |
dl2.invalidations                                0 |            0 |            0 |            0 |            0 |            0 |            0 |            0 |            0 |            0 |            0 |            0 |            0 |            0 |            0 |            0 |            0 |            0 |            0 |            0 |            0 |            0 |            0 |            0 |            0 |            0 |            0 |            0 |            0 |            0 |            0 |            0 |            0 |            0 |            0 |            0 |            0 |            0 |            0 |            0 |            0 |            0 |            0 |            0 |
dl2.miss_rate                               0.0963 |       0.0963 |       0.0916 |       0.0916 |       0.0539 |       0.0539 |       0.0522 |       0.0522 |       0.0343 |       0.0343 |       0.0333 |       0.0333 |       0.0253 |       0.0253 |       0.0238 |       0.0238 |       0.0201 |       0.0201 |       0.0191 |       0.0191 |       0.0163 |       0.0163 |       0.0156 |       0.0156 |       0.0142 |       0.0142 |       0.0133 |       0.0133 |       0.0123 |       0.0123 |       0.0116 |       0.0612 |       0.0111 |       0.2066 |       0.0558 |       0.1998 |       0.1960 |       0.2271 |       0.1980 |       0.2267 |       0.2165 |       0.2495 |       0.2209 |       0.2543 |
dl2.repl_rate                               0.0048 |       0.0048 |       0.0000 |       0.0000 |       0.0019 |       0.0019 |       0.0000 |       0.0000 |       0.0007 |       0.0007 |       0.0000 |       0.0000 |       0.0003 |       0.0003 |       0.0000 |       0.0000 |       0.0001 |       0.0001 |       0.0000 |       0.0000 |       0.0001 |       0.0001 |       0.0000 |       0.0000 |       0.0000 |       0.0000 |       0.0000 |       0.0000 |       0.0000 |       0.0002 |       0.0000 |       0.0498 |       0.0001 |       0.2011 |       0.0456 |       0.1947 |       0.1910 |       0.2246 |       0.1932 |       0.2243 |       0.2142 |       0.2484 |       0.2187 |       0.2531 |
dl2.wb_rate                                 0.0000 |       0.0000 |       0.0000 |       0.0000 |       0.0000 |       0.0000 |       0.0000 |       0.0000 |       0.0000 |       0.0000 |       0.0000 |       0.0000 |       0.0000 |       0.0000 |       0.0000 |       0.0000 |       0.0000 |       0.0000 |       0.0000 |       0.0000 |       0.0000 |       0.0000 |       0.0000 |       0.0000 |       0.0000 |       0.0000 |       0.0000 |       0.0000 |       0.0000 |       0.0001 |       0.0000 |       0.0497 |       0.0001 |       0.1989 |       0.0456 |       0.1908 |       0.1891 |       0.2141 |       0.1895 |       0.2130 |       0.2046 |       0.2308 |       0.2081 |       0.2344 |
dl2.inv_rate                                0.0000 |       0.0000 |       0.0000 |       0.0000 |       0.0000 |       0.0000 |       0.0000 |       0.0000 |       0.0000 |       0.0000 |       0.0000 |       0.0000 |       0.0000 |       0.0000 |       0.0000 |       0.0000 |       0.0000 |       0.0000 |       0.0000 |       0.0000 |       0.0000 |       0.0000 |       0.0000 |       0.0000 |       0.0000 |       0.0000 |       0.0000 |       0.0000 |       0.0000 |       0.0000 |       0.0000 |       0.0000 |       0.0000 |       0.0000 |       0.0000 |       0.0000 |       0.0000 |       0.0000 |       0.0000 |       0.0000 |       0.0000 |       0.0000 |       0.0000 |       0.0000 |
itlb.accesses                               983923 |       983923 |       983923 |       983923 |      2250706 |      2250706 |      2250706 |      2250706 |      5030060 |      5030060 |      5030060 |      5030060 |     10645388 |     10645388 |     10645388 |     10645388 |     22740128 |     22740128 |     22740128 |     22740128 |     49175990 |     49175990 |     49175990 |     49175990 |    101668114 |    101668114 |    101668114 |    101668114 |    218321538 |    218321538 |    218321538 |    218321538 |    463524989 |    463524989 |    463524989 |    463524989 |    995499478 |    995499478 |    995499478 |    995499478 |   2076165210 |   2076165210 |   2076165210 |   2076165210 |
itlb.hits                                   983913 |       983913 |       983913 |       983913 |      2250696 |      2250696 |      2250696 |      2250696 |      5030050 |      5030050 |      5030050 |      5030050 |     10645378 |     10645378 |     10645378 |     10645378 |     22740118 |     22740118 |     22740118 |     22740118 |     49175980 |     49175980 |     49175980 |     49175980 |    101668104 |    101668104 |    101668104 |    101668104 |    218321528 |    218321528 |    218321528 |    218321528 |    463524979 |    463524979 |    463524979 |    463524979 |    995499468 |    995499468 |    995499468 |    995499468 |   2076165200 |   2076165200 |   2076165200 |   2076165200 |
itlb.misses                                     10 |           10 |           10 |           10 |           10 |           10 |           10 |           10 |           10 |           10 |           10 |           10 |           10 |           10 |           10 |           10 |           10 |           10 |           10 |           10 |           10 |           10 |           10 |           10 |           10 |           10 |           10 |           10 |           10 |           10 |           10 |           10 |           10 |           10 |           10 |           10 |           10 |           10 |           10 |           10 |           10 |           10 |           10 |           10 |
itlb.replacements                                0 |            0 |            0 |            0 |            0 |            0 |            0 |            0 |            0 |            0 |            0 |            0 |            0 |            0 |            0 |            0 |            0 |            0 |            0 |            0 |            0 |            0 |            0 |            0 |            0 |            0 |            0 |            0 |            0 |            0 |            0 |            0 |            0 |            0 |            0 |            0 |            0 |            0 |            0 |            0 |            0 |            0 |            0 |            0 |
itlb.writebacks                                  0 |            0 |            0 |            0 |            0 |            0 |            0 |            0 |            0 |            0 |            0 |            0 |            0 |            0 |            0 |            0 |            0 |            0 |            0 |            0 |            0 |            0 |            0 |            0 |            0 |            0 |            0 |            0 |            0 |            0 |            0 |            0 |            0 |            0 |            0 |            0 |            0 |            0 |            0 |            0 |            0 |            0 |            0 |            0 |
itlb.invalidations                               0 |            0 |            0 |            0 |            0 |            0 |            0 |            0 |            0 |            0 |            0 |            0 |            0 |            0 |            0 |            0 |            0 |            0 |            0 |            0 |            0 |            0 |            0 |            0 |            0 |            0 |            0 |            0 |            0 |            0 |            0 |            0 |            0 |            0 |            0 |            0 |            0 |            0 |            0 |            0 |            0 |            0 |            0 |            0 |
itlb.miss_rate                              0.0000 |       0.0000 |       0.0000 |       0.0000 |       0.0000 |       0.0000 |       0.0000 |       0.0000 |       0.0000 |       0.0000 |       0.0000 |       0.0000 |       0.0000 |       0.0000 |       0.0000 |       0.0000 |       0.0000 |       0.0000 |       0.0000 |       0.0000 |       0.0000 |       0.0000 |       0.0000 |       0.0000 |       0.0000 |       0.0000 |       0.0000 |       0.0000 |       0.0000 |       0.0000 |       0.0000 |       0.0000 |       0.0000 |       0.0000 |       0.0000 |       0.0000 |       0.0000 |       0.0000 |       0.0000 |       0.0000 |       0.0000 |       0.0000 |       0.0000 |       0.0000 |
itlb.repl_rate                              0.0000 |       0.0000 |       0.0000 |       0.0000 |       0.0000 |       0.0000 |       0.0000 |       0.0000 |       0.0000 |       0.0000 |       0.0000 |       0.0000 |       0.0000 |       0.0000 |       0.0000 |       0.0000 |       0.0000 |       0.0000 |       0.0000 |       0.0000 |       0.0000 |       0.0000 |       0.0000 |       0.0000 |       0.0000 |       0.0000 |       0.0000 |       0.0000 |       0.0000 |       0.0000 |       0.0000 |       0.0000 |       0.0000 |       0.0000 |       0.0000 |       0.0000 |       0.0000 |       0.0000 |       0.0000 |       0.0000 |       0.0000 |       0.0000 |       0.0000 |       0.0000 |
itlb.wb_rate                                0.0000 |       0.0000 |       0.0000 |       0.0000 |       0.0000 |       0.0000 |       0.0000 |       0.0000 |       0.0000 |       0.0000 |       0.0000 |       0.0000 |       0.0000 |       0.0000 |       0.0000 |       0.0000 |       0.0000 |       0.0000 |       0.0000 |       0.0000 |       0.0000 |       0.0000 |       0.0000 |       0.0000 |       0.0000 |       0.0000 |       0.0000 |       0.0000 |       0.0000 |       0.0000 |       0.0000 |       0.0000 |       0.0000 |       0.0000 |       0.0000 |       0.0000 |       0.0000 |       0.0000 |       0.0000 |       0.0000 |       0.0000 |       0.0000 |       0.0000 |       0.0000 |
itlb.inv_rate                               0.0000 |       0.0000 |       0.0000 |       0.0000 |       0.0000 |       0.0000 |       0.0000 |       0.0000 |       0.0000 |       0.0000 |       0.0000 |       0.0000 |       0.0000 |       0.0000 |       0.0000 |       0.0000 |       0.0000 |       0.0000 |       0.0000 |       0.0000 |       0.0000 |       0.0000 |       0.0000 |       0.0000 |       0.0000 |       0.0000 |       0.0000 |       0.0000 |       0.0000 |       0.0000 |       0.0000 |       0.0000 |       0.0000 |       0.0000 |       0.0000 |       0.0000 |       0.0000 |       0.0000 |       0.0000 |       0.0000 |       0.0000 |       0.0000 |       0.0000 |       0.0000 |
dtlb.accesses                               201804 |       201804 |       201804 |       201804 |       452182 |       452182 |       452182 |       452182 |       998005 |       998005 |       998005 |       998005 |      2107287 |      2107287 |      2107287 |      2107287 |      4453488 |      4453488 |      4453488 |      4453488 |      9585817 |      9585817 |      9585817 |      9585817 |     19852752 |     19852752 |     19852752 |     19852752 |     42462559 |     42462559 |     42462559 |     42462559 |     89927088 |     89927088 |     89927088 |     89927088 |    192308368 |    192308368 |    192308368 |    192308368 |    400905633 |    400905633 |    400905633 |    400905633 |
dtlb.hits                                   201793 |       201793 |       201793 |       201793 |       452167 |       452167 |       452167 |       452167 |       997982 |       997982 |       997982 |       997982 |      2107248 |      2107248 |      2107248 |      2107248 |      4453417 |      4453417 |      4453417 |      4453417 |      9585613 |      9585613 |      9585613 |      9585613 |     19847483 |     19847483 |     19847483 |     19847483 |     42447674 |     42447674 |     42447674 |     42447674 |     89778603 |     89778603 |     89778603 |     89778603 |    192210462 |    192210462 |    192210462 |    192210462 |    400668573 |    400668573 |    400668573 |    400668573 |
dtlb.misses                                     11 |           11 |           11 |           11 |           15 |           15 |           15 |           15 |           23 |           23 |           23 |           23 |           39 |           39 |           39 |           39 |           71 |           71 |           71 |           71 |          204 |          204 |          204 |          204 |         5269 |         5269 |         5269 |         5269 |        14885 |        14885 |        14885 |        14885 |       148485 |       148485 |       148485 |       148485 |        97906 |        97906 |        97906 |        97906 |       237060 |       237060 |       237060 |       237060 |
dtlb.replacements                                0 |            0 |            0 |            0 |            0 |            0 |            0 |            0 |            0 |            0 |            0 |            0 |            0 |            0 |            0 |            0 |            0 |            0 |            0 |            0 |           76 |           76 |           76 |           76 |         5141 |         5141 |         5141 |         5141 |        14757 |        14757 |        14757 |        14757 |       148357 |       148357 |       148357 |       148357 |        97778 |        97778 |        97778 |        97778 |       236932 |       236932 |       236932 |       236932 |
dtlb.writebacks                                  0 |            0 |            0 |            0 |            0 |            0 |            0 |            0 |            0 |            0 |            0 |            0 |            0 |            0 |            0 |            0 |            0 |            0 |            0 |            0 |           74 |           74 |           74 |           74 |         5053 |         5053 |         5053 |         5053 |        14207 |        14207 |        14207 |        14207 |       127045 |       127045 |       127045 |       127045 |        92006 |        92006 |        92006 |        92006 |       221280 |       221280 |       221280 |       221280 |
dtlb.invalidations                               0 |            0 |            0 |            0 |            0 |            0 |            0 |            0 |            0 |            0 |            0 |            0 |            0 |            0 |            0 |            0 |            0 |            0 |            0 |            0 |            0 |            0 |            0 |            0 |            0 |            0 |            0 |            0 |            0 |            0 |            0 |            0 |            0 |            0 |            0 |            0 |            0 |            0 |            0 |            0 |            0 |            0 |            0 |            0 |
dtlb.miss_rate                              0.0001 |       0.0001 |       0.0001 |       0.0001 |       0.0000 |       0.0000 |       0.0000 |       0.0000 |       0.0000 |       0.0000 |       0.0000 |       0.0000 |       0.0000 |       0.0000 |       0.0000 |       0.0000 |       0.0000 |       0.0000 |       0.0000 |       0.0000 |       0.0000 |       0.0000 |       0.0000 |       0.0000 |       0.0003 |       0.0003 |       0.0003 |       0.0003 |       0.0004 |       0.0004 |       0.0004 |       0.0004 |       0.0017 |       0.0017 |       0.0017 |       0.0017 |       0.0005 |       0.0005 |       0.0005 |       0.0005 |       0.0006 |       0.0006 |       0.0006 |       0.0006 |
dtlb.repl_rate                              0.0000 |       0.0000 |       0.0000 |       0.0000 |       0.0000 |       0.0000 |       0.0000 |       0.0000 |       0.0000 |       0.0000 |       0.0000 |       0.0000 |       0.0000 |       0.0000 |       0.0000 |       0.0000 |       0.0000 |       0.0000 |       0.0000 |       0.0000 |       0.0000 |       0.0000 |       0.0000 |       0.0000 |       0.0003 |       0.0003 |       0.0003 |       0.0003 |       0.0003 |       0.0003 |       0.0003 |       0.0003 |       0.0016 |       0.0016 |       0.0016 |       0.0016 |       0.0005 |       0.0005 |       0.0005 |       0.0005 |       0.0006 |       0.0006 |       0.0006 |       0.0006 |
dtlb.wb_rate                                0.0000 |       0.0000 |       0.0000 |       0.0000 |       0.0000 |       0.0000 |       0.0000 |       0.0000 |       0.0000 |       0.0000 |       0.0000 |       0.0000 |       0.0000 |       0.0000 |       0.0000 |       0.0000 |       0.0000 |       0.0000 |       0.0000 |       0.0000 |       0.0000 |       0.0000 |       0.0000 |       0.0000 |       0.0003 |       0.0003 |       0.0003 |       0.0003 |       0.0003 |       0.0003 |       0.0003 |       0.0003 |       0.0014 |       0.0014 |       0.0014 |       0.0014 |       0.0005 |       0.0005 |       0.0005 |       0.0005 |       0.0006 |       0.0006 |       0.0006 |       0.0006 |
dtlb.inv_rate                               0.0000 |       0.0000 |       0.0000 |       0.0000 |       0.0000 |       0.0000 |       0.0000 |       0.0000 |       0.0000 |       0.0000 |       0.0000 |       0.0000 |       0.0000 |       0.0000 |       0.0000 |       0.0000 |       0.0000 |       0.0000 |       0.0000 |       0.0000 |       0.0000 |       0.0000 |       0.0000 |       0.0000 |       0.0000 |       0.0000 |       0.0000 |       0.0000 |       0.0000 |       0.0000 |       0.0000 |       0.0000 |       0.0000 |       0.0000 |       0.0000 |       0.0000 |       0.0000 |       0.0000 |       0.0000 |       0.0000 |       0.0000 |       0.0000 |       0.0000 |       0.0000 |
ld_text_base                            0x00400000 |   0x00400000 |   0x00400000 |   0x00400000 |   0x00400000 |   0x00400000 |   0x00400000 |   0x00400000 |   0x00400000 |   0x00400000 |   0x00400000 |   0x00400000 |   0x00400000 |   0x00400000 |   0x00400000 |   0x00400000 |   0x00400000 |   0x00400000 |   0x00400000 |   0x00400000 |   0x00400000 |   0x00400000 |   0x00400000 |   0x00400000 |   0x00400000 |   0x00400000 |   0x00400000 |   0x00400000 |   0x00400000 |   0x00400000 |   0x00400000 |   0x00400000 |   0x00400000 |   0x00400000 |   0x00400000 |   0x00400000 |   0x00400000 |   0x00400000 |   0x00400000 |   0x00400000 |   0x00400000 |   0x00400000 |   0x00400000 |   0x00400000 |
ld_text_size                                 71456 |        71456 |        71456 |        71456 |        71488 |        71488 |        71488 |        71488 |        71504 |        71504 |        71504 |        71504 |        71520 |        71520 |        71520 |        71520 |        71520 |        71520 |        71520 |        71520 |        71520 |        71520 |        71520 |        71520 |        71520 |        71520 |        71520 |        71520 |        71520 |        71520 |        71520 |        71520 |        71520 |        71520 |        71520 |        71520 |        71520 |        71520 |        71520 |        71520 |        71520 |        71520 |        71520 |        71520 |
ld_data_base                            0x10000000 |   0x10000000 |   0x10000000 |   0x10000000 |   0x10000000 |   0x10000000 |   0x10000000 |   0x10000000 |   0x10000000 |   0x10000000 |   0x10000000 |   0x10000000 |   0x10000000 |   0x10000000 |   0x10000000 |   0x10000000 |   0x10000000 |   0x10000000 |   0x10000000 |   0x10000000 |   0x10000000 |   0x10000000 |   0x10000000 |   0x10000000 |   0x10000000 |   0x10000000 |   0x10000000 |   0x10000000 |   0x10000000 |   0x10000000 |   0x10000000 |   0x10000000 |   0x10000000 |   0x10000000 |   0x10000000 |   0x10000000 |   0x10000000 |   0x10000000 |   0x10000000 |   0x10000000 |   0x10000000 |   0x10000000 |   0x10000000 |   0x10000000 |
ld_data_size                                  8192 |         8192 |         8192 |         8192 |         8192 |         8192 |         8192 |         8192 |         8192 |         8192 |         8192 |         8192 |         8192 |         8192 |         8192 |         8192 |         8192 |         8192 |         8192 |         8192 |         8192 |         8192 |         8192 |         8192 |         8192 |         8192 |         8192 |         8192 |         8192 |         8192 |         8192 |         8192 |         8192 |         8192 |         8192 |         8192 |         8192 |         8192 |         8192 |         8192 |         8192 |         8192 |         8192 |         8192 |
ld_stack_base                           0x7fffc000 |   0x7fffc000 |   0x7fffc000 |   0x7fffc000 |   0x7fffc000 |   0x7fffc000 |   0x7fffc000 |   0x7fffc000 |   0x7fffc000 |   0x7fffc000 |   0x7fffc000 |   0x7fffc000 |   0x7fffc000 |   0x7fffc000 |   0x7fffc000 |   0x7fffc000 |   0x7fffc000 |   0x7fffc000 |   0x7fffc000 |   0x7fffc000 |   0x7fffc000 |   0x7fffc000 |   0x7fffc000 |   0x7fffc000 |   0x7fffc000 |   0x7fffc000 |   0x7fffc000 |   0x7fffc000 |   0x7fffc000 |   0x7fffc000 |   0x7fffc000 |   0x7fffc000 |   0x7fffc000 |   0x7fffc000 |   0x7fffc000 |   0x7fffc000 |   0x7fffc000 |   0x7fffc000 |   0x7fffc000 |   0x7fffc000 |   0x7fffc000 |   0x7fffc000 |   0x7fffc000 |   0x7fffc000 |
ld_stack_size                                16384 |        16384 |        16384 |        16384 |        16384 |        16384 |        16384 |        16384 |        16384 |        16384 |        16384 |        16384 |        16384 |        16384 |        16384 |        16384 |        16384 |        16384 |        16384 |        16384 |        16384 |        16384 |        16384 |        16384 |        16384 |        16384 |        16384 |        16384 |        16384 |        16384 |        16384 |        16384 |        16384 |        16384 |        16384 |        16384 |        16384 |        16384 |        16384 |        16384 |        16384 |        16384 |        16384 |        16384 |
ld_prog_entry                           0x00400140 |   0x00400140 |   0x00400140 |   0x00400140 |   0x00400140 |   0x00400140 |   0x00400140 |   0x00400140 |   0x00400140 |   0x00400140 |   0x00400140 |   0x00400140 |   0x00400140 |   0x00400140 |   0x00400140 |   0x00400140 |   0x00400140 |   0x00400140 |   0x00400140 |   0x00400140 |   0x00400140 |   0x00400140 |   0x00400140 |   0x00400140 |   0x00400140 |   0x00400140 |   0x00400140 |   0x00400140 |   0x00400140 |   0x00400140 |   0x00400140 |   0x00400140 |   0x00400140 |   0x00400140 |   0x00400140 |   0x00400140 |   0x00400140 |   0x00400140 |   0x00400140 |   0x00400140 |   0x00400140 |   0x00400140 |   0x00400140 |   0x00400140 |
ld_environ_base                         0x7fff8000 |   0x7fff8000 |   0x7fff8000 |   0x7fff8000 |   0x7fff8000 |   0x7fff8000 |   0x7fff8000 |   0x7fff8000 |   0x7fff8000 |   0x7fff8000 |   0x7fff8000 |   0x7fff8000 |   0x7fff8000 |   0x7fff8000 |   0x7fff8000 |   0x7fff8000 |   0x7fff8000 |   0x7fff8000 |   0x7fff8000 |   0x7fff8000 |   0x7fff8000 |   0x7fff8000 |   0x7fff8000 |   0x7fff8000 |   0x7fff8000 |   0x7fff8000 |   0x7fff8000 |   0x7fff8000 |   0x7fff8000 |   0x7fff8000 |   0x7fff8000 |   0x7fff8000 |   0x7fff8000 |   0x7fff8000 |   0x7fff8000 |   0x7fff8000 |   0x7fff8000 |   0x7fff8000 |   0x7fff8000 |   0x7fff8000 |   0x7fff8000 |   0x7fff8000 |   0x7fff8000 |   0x7fff8000 |
ld_target_big_endian                             0 |            0 |            0 |            0 |            0 |            0 |            0 |            0 |            0 |            0 |            0 |            0 |            0 |            0 |            0 |            0 |            0 |            0 |            0 |            0 |            0 |            0 |            0 |            0 |            0 |            0 |            0 |            0 |            0 |            0 |            0 |            0 |            0 |            0 |            0 |            0 |            0 |            0 |            0 |            0 |            0 |            0 |            0 |            0 |
mem.page_count                                  29 |           29 |           29 |           29 |           33 |           33 |           33 |           33 |           41 |           41 |           41 |           41 |           57 |           57 |           57 |           57 |           89 |           89 |           89 |           89 |          153 |          153 |          153 |          153 |          281 |          281 |          281 |          281 |          537 |          537 |          537 |          537 |         1049 |         1049 |         1049 |         1049 |         2073 |         2073 |         2073 |         2073 |         4121 |         4121 |         4121 |         4121 |
mem.page_mem                                  116k |         116k |         116k |         116k |         132k |         132k |         132k |         132k |         164k |         164k |         164k |         164k |         228k |         228k |         228k |         228k |         356k |         356k |         356k |         356k |         612k |         612k |         612k |         612k |        1124k |        1124k |        1124k |        1124k |        2148k |        2148k |        2148k |        2148k |        4196k |        4196k |        4196k |        4196k |        8292k |        8292k |        8292k |        8292k |       16484k |       16484k |       16484k |       16484k |
mem.ptab_misses                                 29 |           29 |           29 |           29 |           33 |           33 |           33 |           33 |           41 |           41 |           41 |           41 |           57 |           57 |           57 |           57 |           89 |           89 |           89 |           89 |          153 |          153 |          153 |          153 |          281 |          281 |          281 |          281 |          537 |          537 |          537 |          537 |         1049 |         1049 |         1049 |         1049 |         2073 |         2073 |         2073 |         2073 |         4121 |         4121 |         4121 |         4121 |
mem.ptab_accesses                          4782604 |      4782604 |      4782604 |      4782604 |     10350684 |     10350684 |     10350684 |     10350684 |     22559842 |     22559842 |     22559842 |     22559842 |     47239814 |     47239814 |     47239814 |     47239814 |    100311176 |    100311176 |    100311176 |    100311176 |    216319282 |    216319282 |    216319282 |    216319282 |    446821648 |    446821648 |    446821648 |    446821648 |    958654958 |    958654958 |    958654958 |    958654958 |   2034397820 |   2034397820 |   2034397820 |   2034397820 |   4367058336 |   4367058336 |   4367058336 |   4367058336 |   9106915794 |   9106915794 |   9106915794 |   9106915794 |
mem.ptab_miss_rate                          0.0000 |       0.0000 |       0.0000 |       0.0000 |       0.0000 |       0.0000 |       0.0000 |       0.0000 |       0.0000 |       0.0000 |       0.0000 |       0.0000 |       0.0000 |       0.0000 |       0.0000 |       0.0000 |       0.0000 |       0.0000 |       0.0000 |       0.0000 |       0.0000 |       0.0000 |       0.0000 |       0.0000 |       0.0000 |       0.0000 |       0.0000 |       0.0000 |       0.0000 |       0.0000 |       0.0000 |       0.0000 |       0.0000 |       0.0000 |       0.0000 |       0.0000 |       0.0000 |       0.0000 |       0.0000 |       0.0000 |       0.0000 |       0.0000 |       0.0000 |       0.0000 |
-------------------------------------------------------------------------------------------------
sim-bpred                                     4096 |         4096 |         4096 |         4096 |         4096 |         4096 |         4096 |         8192 |         8192 |         8192 |         8192 |         8192 |         8192 |         8192 |        16384 |        16384 |        16384 |        16384 |        16384 |        16384 |        16384 |        32768 |        32768 |        32768 |        32768 |        32768 |        32768 |        32768 |        65536 |        65536 |        65536 |        65536 |        65536 |        65536 |        65536 |       131072 |       131072 |       131072 |       131072 |       131072 |       131072 |       131072 |       262144 |       262144 |       262144 |       262144 |       262144 |       262144 |       262144 |       524288 |       524288 |       524288 |       524288 |       524288 |       524288 |       524288 |      1048576 |      1048576 |      1048576 |      1048576 |      1048576 |      1048576 |      1048576 |      2097152 |      2097152 |      2097152 |      2097152 |      2097152 |      2097152 |      2097152 |      4194304 |      4194304 |      4194304 |      4194304 |      4194304 |      4194304 |      4194304 |
-bpred bimod -bpred:bimod 512
-bpred bimod -bpred:bimod 1024
-bpred bimod -bpred:bimod 2048
-bpred 2lev -bpred:2lev 1 512 10 1
-bpred 2lev -bpred:2lev 1 1024 10 1
-bpred 2lev -bpred:2lev 1 2048 10 1
-bpred 2lev -bpred:2lev 1 4096 10 1
-------------------------------------------------------------------------------------------------
sim_num_insn                                983923 |       983923 |       983923 |       983923 |       983923 |       983923 |       983923 |      2250706 |      2250706 |      2250706 |      2250706 |      2250706 |      2250706 |      2250706 |      5030060 |      5030060 |      5030060 |      5030060 |      5030060 |      5030060 |      5030060 |     10645388 |     10645388 |     10645388 |     10645388 |     10645388 |     10645388 |     10645388 |     22740128 |     22740128 |     22740128 |     22740128 |     22740128 |     22740128 |     22740128 |     49175990 |     49175990 |     49175990 |     49175990 |     49175990 |     49175990 |     49175990 |    101668114 |    101668114 |    101668114 |    101668114 |    101668114 |    101668114 |    101668114 |    218321538 |    218321538 |    218321538 |    218321538 |    218321538 |    218321538 |    218321538 |    463524989 |    463524989 |    463524989 |    463524989 |    463524989 |    463524989 |    463524989 |    995499478 |    995499478 |    995499478 |    995499478 |    995499478 |    995499478 |    995499478 |   2076165210 |   2076165210 |   2076165210 |   2076165210 |   2076165210 |   2076165210 |   2076165210 |
sim_num_refs                                185338 |       185338 |       185338 |       185338 |       185338 |       185338 |       185338 |       419332 |       419332 |       419332 |       419332 |       419332 |       419332 |       419332 |       932387 |       932387 |       932387 |       932387 |       932387 |       932387 |       932387 |      1976133 |      1976133 |      1976133 |      1976133 |      1976133 |      1976133 |      1976133 |      4191262 |      4191262 |      4191262 |      4191262 |      4191262 |      4191262 |      4191262 |      9061447 |      9061447 |      9061447 |      9061447 |      9061447 |      9061447 |      9061447 |     18804094 |     18804094 |     18804094 |     18804094 |     18804094 |     18804094 |     18804094 |     40365325 |     40365325 |     40365325 |     40365325 |     40365325 |     40365325 |     40365325 |     85732702 |     85732702 |     85732702 |     85732702 |     85732702 |     85732702 |     85732702 |    183919678 |    183919678 |    183919678 |    183919678 |    183919678 |    183919678 |    183919678 |    384128335 |    384128335 |    384128335 |    384128335 |    384128335 |    384128335 |    384128335 |
sim_elapsed_time                                 1 |            1 |            1 |            1 |            1 |            1 |            1 |            1 |            1 |            1 |            1 |            1 |            1 |            1 |            1 |            1 |            1 |            1 |            1 |            1 |            1 |            1 |            1 |            1 |            2 |            1 |            1 |            1 |            3 |            2 |            3 |            3 |            3 |            2 |            3 |            6 |            6 |            5 |            6 |            6 |            6 |            6 |           11 |           11 |           12 |           12 |           12 |           13 |           12 |           26 |           25 |           25 |           26 |           26 |           26 |           26 |           55 |           53 |           54 |           56 |           55 |           55 |           55 |          116 |          116 |          116 |          119 |          118 |          118 |          118 |          242 |          240 |          242 |          247 |          248 |          247 |          247 |
sim_inst_rate                          983923.0000 |  983923.0000 |  983923.0000 |  983923.0000 |  983923.0000 |  983923.0000 |  983923.0000 | 2250706.0000 | 2250706.0000 | 2250706.0000 | 2250706.0000 | 2250706.0000 | 2250706.0000 | 2250706.0000 | 5030060.0000 | 5030060.0000 | 5030060.0000 | 5030060.0000 | 5030060.0000 | 5030060.0000 | 5030060.0000 |10645388.0000 |10645388.0000 |10645388.0000 | 5322694.0000 |10645388.0000 |10645388.0000 |10645388.0000 | 7580042.6667 |11370064.0000 | 7580042.6667 | 7580042.6667 | 7580042.6667 |11370064.0000 | 7580042.6667 | 8195998.3333 | 8195998.3333 | 9835198.0000 | 8195998.3333 | 8195998.3333 | 8195998.3333 | 8195998.3333 | 9242555.8182 | 9242555.8182 | 8472342.8333 | 8472342.8333 | 8472342.8333 | 7820624.1538 | 8472342.8333 | 8396982.2308 | 8732861.5200 | 8732861.5200 | 8396982.2308 | 8396982.2308 | 8396982.2308 | 8396982.2308 | 8427727.0727 | 8745754.5094 | 8583796.0926 | 8277231.9464 | 8427727.0727 | 8427727.0727 | 8427727.0727 | 8581892.0517 | 8581892.0517 | 8581892.0517 | 8365541.8319 | 8436436.2542 | 8436436.2542 | 8436436.2542 | 8579195.0826 | 8650688.3750 | 8579195.0826 | 8405527.1660 | 8371633.9113 | 8405527.1660 | 8405527.1660 |
sim_num_branches                            163706 |       163706 |       163706 |       163706 |       163706 |       163706 |       163706 |       374837 |       374837 |       374837 |       374837 |       374837 |       374837 |       374837 |       838061 |       838061 |       838061 |       838061 |       838061 |       838061 |       838061 |      1773951 |      1773951 |      1773951 |      1773951 |      1773951 |      1773951 |      1773951 |      3789741 |      3789741 |      3789741 |      3789741 |      3789741 |      3789741 |      3789741 |      8195718 |      8195718 |      8195718 |      8195718 |      8195718 |      8195718 |      8195718 |     16944407 |     16944407 |     16944407 |     16944407 |     16944407 |     16944407 |     16944407 |     36386643 |     36386643 |     36386643 |     36386643 |     36386643 |     36386643 |     36386643 |     77253884 |     77253884 |     77253884 |     77253884 |     77253884 |     77253884 |     77253884 |    165916301 |    165916301 |    165916301 |    165916301 |    165916301 |    165916301 |    165916301 |    346027254 |    346027254 |    346027254 |    346027254 |    346027254 |    346027254 |    346027254 |
sim_IPB                                     6.0103 |       6.0103 |       6.0103 |       6.0103 |       6.0103 |       6.0103 |       6.0103 |       6.0045 |       6.0045 |       6.0045 |       6.0045 |       6.0045 |       6.0045 |       6.0045 |       6.0020 |       6.0020 |       6.0020 |       6.0020 |       6.0020 |       6.0020 |       6.0020 |       6.0009 |       6.0009 |       6.0009 |       6.0009 |       6.0009 |       6.0009 |       6.0009 |       6.0004 |       6.0004 |       6.0004 |       6.0004 |       6.0004 |       6.0004 |       6.0004 |       6.0002 |       6.0002 |       6.0002 |       6.0002 |       6.0002 |       6.0002 |       6.0002 |       6.0001 |       6.0001 |       6.0001 |       6.0001 |       6.0001 |       6.0001 |       6.0001 |       6.0000 |       6.0000 |       6.0000 |       6.0000 |       6.0000 |       6.0000 |       6.0000 |       6.0000 |       6.0000 |       6.0000 |       6.0000 |       6.0000 |       6.0000 |       6.0000 |       6.0000 |       6.0000 |       6.0000 |       6.0000 |       6.0000 |       6.0000 |       6.0000 |       6.0000 |       6.0000 |       6.0000 |       6.0000 |       6.0000 |       6.0000 |       6.0000 |
bpred_bimod.lookups                         163706 |       163706 |       163706 |xxxxxxxxxxxxx |xxxxxxxxxxxxx |xxxxxxxxxxxxx |xxxxxxxxxxxxx |       374837 |       374837 |       374837 |xxxxxxxxxxxxx |xxxxxxxxxxxxx |xxxxxxxxxxxxx |xxxxxxxxxxxxx |       838061 |       838061 |       838061 |xxxxxxxxxxxxx |xxxxxxxxxxxxx |xxxxxxxxxxxxx |xxxxxxxxxxxxx |      1773951 |      1773951 |      1773951 |xxxxxxxxxxxxx |xxxxxxxxxxxxx |xxxxxxxxxxxxx |xxxxxxxxxxxxx |      3789741 |      3789741 |      3789741 |xxxxxxxxxxxxx |xxxxxxxxxxxxx |xxxxxxxxxxxxx |xxxxxxxxxxxxx |      8195718 |      8195718 |      8195718 |xxxxxxxxxxxxx |xxxxxxxxxxxxx |xxxxxxxxxxxxx |xxxxxxxxxxxxx |     16944407 |     16944407 |     16944407 |xxxxxxxxxxxxx |xxxxxxxxxxxxx |xxxxxxxxxxxxx |xxxxxxxxxxxxx |     36386643 |     36386643 |     36386643 |xxxxxxxxxxxxx |xxxxxxxxxxxxx |xxxxxxxxxxxxx |xxxxxxxxxxxxx |     77253884 |     77253884 |     77253884 |xxxxxxxxxxxxx |xxxxxxxxxxxxx |xxxxxxxxxxxxx |xxxxxxxxxxxxx |    165916301 |    165916301 |    165916301 |xxxxxxxxxxxxx |xxxxxxxxxxxxx |xxxxxxxxxxxxx |xxxxxxxxxxxxx |    346027254 |    346027254 |    346027254 |
bpred_bimod.updates                         163706 |       163706 |       163706 |xxxxxxxxxxxxx |xxxxxxxxxxxxx |xxxxxxxxxxxxx |xxxxxxxxxxxxx |       374837 |       374837 |       374837 |xxxxxxxxxxxxx |xxxxxxxxxxxxx |xxxxxxxxxxxxx |xxxxxxxxxxxxx |       838061 |       838061 |       838061 |xxxxxxxxxxxxx |xxxxxxxxxxxxx |xxxxxxxxxxxxx |xxxxxxxxxxxxx |      1773951 |      1773951 |      1773951 |xxxxxxxxxxxxx |xxxxxxxxxxxxx |xxxxxxxxxxxxx |xxxxxxxxxxxxx |      3789741 |      3789741 |      3789741 |xxxxxxxxxxxxx |xxxxxxxxxxxxx |xxxxxxxxxxxxx |xxxxxxxxxxxxx |      8195718 |      8195718 |      8195718 |xxxxxxxxxxxxx |xxxxxxxxxxxxx |xxxxxxxxxxxxx |xxxxxxxxxxxxx |     16944407 |     16944407 |     16944407 |xxxxxxxxxxxxx |xxxxxxxxxxxxx |xxxxxxxxxxxxx |xxxxxxxxxxxxx |     36386643 |     36386643 |     36386643 |xxxxxxxxxxxxx |xxxxxxxxxxxxx |xxxxxxxxxxxxx |xxxxxxxxxxxxx |     77253884 |     77253884 |     77253884 |xxxxxxxxxxxxx |xxxxxxxxxxxxx |xxxxxxxxxxxxx |xxxxxxxxxxxxx |    165916301 |    165916301 |    165916301 |xxxxxxxxxxxxx |xxxxxxxxxxxxx |xxxxxxxxxxxxx |xxxxxxxxxxxxx |    346027254 |    346027254 |    346027254 |
bpred_bimod.addr_hits                       127227 |       127230 |       127231 |xxxxxxxxxxxxx |xxxxxxxxxxxxx |xxxxxxxxxxxxx |xxxxxxxxxxxxx |       295441 |       295444 |       295444 |xxxxxxxxxxxxx |xxxxxxxxxxxxx |xxxxxxxxxxxxx |xxxxxxxxxxxxx |       656141 |       656144 |       656145 |xxxxxxxxxxxxx |xxxxxxxxxxxxx |xxxxxxxxxxxxx |xxxxxxxxxxxxx |      1382114 |      1382117 |      1382116 |xxxxxxxxxxxxx |xxxxxxxxxxxxx |xxxxxxxxxxxxx |xxxxxxxxxxxxx |      2984577 |      2984580 |      2984580 |xxxxxxxxxxxxx |xxxxxxxxxxxxx |xxxxxxxxxxxxx |xxxxxxxxxxxxx |      6441869 |      6441872 |      6441872 |xxxxxxxxxxxxx |xxxxxxxxxxxxx |xxxxxxxxxxxxx |xxxxxxxxxxxxx |     13145545 |     13145548 |     13145548 |xxxxxxxxxxxxx |xxxxxxxxxxxxx |xxxxxxxxxxxxx |xxxxxxxxxxxxx |     28178701 |     28178704 |     28178703 |xxxxxxxxxxxxx |xxxxxxxxxxxxx |xxxxxxxxxxxxx |xxxxxxxxxxxxx |     59630385 |     59630388 |     59630387 |xxxxxxxxxxxxx |xxxxxxxxxxxxx |xxxxxxxxxxxxx |xxxxxxxxxxxxx |    128909896 |    128909899 |    128909898 |xxxxxxxxxxxxx |xxxxxxxxxxxxx |xxxxxxxxxxxxx |xxxxxxxxxxxxx |    268745596 |    268745599 |    268745598 |
bpred_bimod.dir_hits                        127324 |       127325 |       127325 |xxxxxxxxxxxxx |xxxxxxxxxxxxx |xxxxxxxxxxxxx |xxxxxxxxxxxxx |       295538 |       295540 |       295539 |xxxxxxxxxxxxx |xxxxxxxxxxxxx |xxxxxxxxxxxxx |xxxxxxxxxxxxx |       656237 |       656239 |       656239 |xxxxxxxxxxxxx |xxxxxxxxxxxxx |xxxxxxxxxxxxx |xxxxxxxxxxxxx |      1382209 |      1382211 |      1382210 |xxxxxxxxxxxxx |xxxxxxxxxxxxx |xxxxxxxxxxxxx |xxxxxxxxxxxxx |      2984670 |      2984672 |      2984672 |xxxxxxxxxxxxx |xxxxxxxxxxxxx |xxxxxxxxxxxxx |xxxxxxxxxxxxx |      6441965 |      6441967 |      6441967 |xxxxxxxxxxxxx |xxxxxxxxxxxxx |xxxxxxxxxxxxx |xxxxxxxxxxxxx |     13145641 |     13145643 |     13145643 |xxxxxxxxxxxxx |xxxxxxxxxxxxx |xxxxxxxxxxxxx |xxxxxxxxxxxxx |     28178797 |     28178799 |     28178798 |xxxxxxxxxxxxx |xxxxxxxxxxxxx |xxxxxxxxxxxxx |xxxxxxxxxxxxx |     59630479 |     59630481 |     59630480 |xxxxxxxxxxxxx |xxxxxxxxxxxxx |xxxxxxxxxxxxx |xxxxxxxxxxxxx |    128909991 |    128909993 |    128909992 |xxxxxxxxxxxxx |xxxxxxxxxxxxx |xxxxxxxxxxxxx |xxxxxxxxxxxxx |    268745689 |    268745691 |    268745690 |
bpred_bimod.misses                           36382 |        36381 |        36381 |xxxxxxxxxxxxx |xxxxxxxxxxxxx |xxxxxxxxxxxxx |xxxxxxxxxxxxx |        79299 |        79297 |        79298 |xxxxxxxxxxxxx |xxxxxxxxxxxxx |xxxxxxxxxxxxx |xxxxxxxxxxxxx |       181824 |       181822 |       181822 |xxxxxxxxxxxxx |xxxxxxxxxxxxx |xxxxxxxxxxxxx |xxxxxxxxxxxxx |       391742 |       391740 |       391741 |xxxxxxxxxxxxx |xxxxxxxxxxxxx |xxxxxxxxxxxxx |xxxxxxxxxxxxx |       805071 |       805069 |       805069 |xxxxxxxxxxxxx |xxxxxxxxxxxxx |xxxxxxxxxxxxx |xxxxxxxxxxxxx |      1753753 |      1753751 |      1753751 |xxxxxxxxxxxxx |xxxxxxxxxxxxx |xxxxxxxxxxxxx |xxxxxxxxxxxxx |      3798766 |      3798764 |      3798764 |xxxxxxxxxxxxx |xxxxxxxxxxxxx |xxxxxxxxxxxxx |xxxxxxxxxxxxx |      8207846 |      8207844 |      8207845 |xxxxxxxxxxxxx |xxxxxxxxxxxxx |xxxxxxxxxxxxx |xxxxxxxxxxxxx |     17623405 |     17623403 |     17623404 |xxxxxxxxxxxxx |xxxxxxxxxxxxx |xxxxxxxxxxxxx |xxxxxxxxxxxxx |     37006310 |     37006308 |     37006309 |xxxxxxxxxxxxx |xxxxxxxxxxxxx |xxxxxxxxxxxxx |xxxxxxxxxxxxx |     77281565 |     77281563 |     77281564 |
bpred_bimod.jr_hits                             57 |           57 |           57 |xxxxxxxxxxxxx |xxxxxxxxxxxxx |xxxxxxxxxxxxx |xxxxxxxxxxxxx |           57 |           57 |           57 |xxxxxxxxxxxxx |xxxxxxxxxxxxx |xxxxxxxxxxxxx |xxxxxxxxxxxxx |           57 |           57 |           57 |xxxxxxxxxxxxx |xxxxxxxxxxxxx |xxxxxxxxxxxxx |xxxxxxxxxxxxx |           57 |           57 |           57 |xxxxxxxxxxxxx |xxxxxxxxxxxxx |xxxxxxxxxxxxx |xxxxxxxxxxxxx |           57 |           57 |           57 |xxxxxxxxxxxxx |xxxxxxxxxxxxx |xxxxxxxxxxxxx |xxxxxxxxxxxxx |           57 |           57 |           57 |xxxxxxxxxxxxx |xxxxxxxxxxxxx |xxxxxxxxxxxxx |xxxxxxxxxxxxx |           57 |           57 |           57 |xxxxxxxxxxxxx |xxxxxxxxxxxxx |xxxxxxxxxxxxx |xxxxxxxxxxxxx |           57 |           57 |           57 |xxxxxxxxxxxxx |xxxxxxxxxxxxx |xxxxxxxxxxxxx |xxxxxxxxxxxxx |           57 |           57 |           57 |xxxxxxxxxxxxx |xxxxxxxxxxxxx |xxxxxxxxxxxxx |xxxxxxxxxxxxx |           57 |           57 |           57 |xxxxxxxxxxxxx |xxxxxxxxxxxxx |xxxxxxxxxxxxx |xxxxxxxxxxxxx |           57 |           57 |           57 |
bpred_bimod.jr_seen                             58 |           58 |           58 |xxxxxxxxxxxxx |xxxxxxxxxxxxx |xxxxxxxxxxxxx |xxxxxxxxxxxxx |           58 |           58 |           58 |xxxxxxxxxxxxx |xxxxxxxxxxxxx |xxxxxxxxxxxxx |xxxxxxxxxxxxx |           58 |           58 |           58 |xxxxxxxxxxxxx |xxxxxxxxxxxxx |xxxxxxxxxxxxx |xxxxxxxxxxxxx |           58 |           58 |           58 |xxxxxxxxxxxxx |xxxxxxxxxxxxx |xxxxxxxxxxxxx |xxxxxxxxxxxxx |           58 |           58 |           58 |xxxxxxxxxxxxx |xxxxxxxxxxxxx |xxxxxxxxxxxxx |xxxxxxxxxxxxx |           58 |           58 |           58 |xxxxxxxxxxxxx |xxxxxxxxxxxxx |xxxxxxxxxxxxx |xxxxxxxxxxxxx |           58 |           58 |           58 |xxxxxxxxxxxxx |xxxxxxxxxxxxx |xxxxxxxxxxxxx |xxxxxxxxxxxxx |           58 |           58 |           58 |xxxxxxxxxxxxx |xxxxxxxxxxxxx |xxxxxxxxxxxxx |xxxxxxxxxxxxx |           58 |           58 |           58 |xxxxxxxxxxxxx |xxxxxxxxxxxxx |xxxxxxxxxxxxx |xxxxxxxxxxxxx |           58 |           58 |           58 |xxxxxxxxxxxxx |xxxxxxxxxxxxx |xxxxxxxxxxxxx |xxxxxxxxxxxxx |           58 |           58 |           58 |
bpred_bimod.jr_non_ras_hits.PP                   0 |            0 |            0 |xxxxxxxxxxxxx |xxxxxxxxxxxxx |xxxxxxxxxxxxx |xxxxxxxxxxxxx |            0 |            0 |            0 |xxxxxxxxxxxxx |xxxxxxxxxxxxx |xxxxxxxxxxxxx |xxxxxxxxxxxxx |            0 |            0 |            0 |xxxxxxxxxxxxx |xxxxxxxxxxxxx |xxxxxxxxxxxxx |xxxxxxxxxxxxx |            0 |            0 |            0 |xxxxxxxxxxxxx |xxxxxxxxxxxxx |xxxxxxxxxxxxx |xxxxxxxxxxxxx |            0 |            0 |            0 |xxxxxxxxxxxxx |xxxxxxxxxxxxx |xxxxxxxxxxxxx |xxxxxxxxxxxxx |            0 |            0 |            0 |xxxxxxxxxxxxx |xxxxxxxxxxxxx |xxxxxxxxxxxxx |xxxxxxxxxxxxx |            0 |            0 |            0 |xxxxxxxxxxxxx |xxxxxxxxxxxxx |xxxxxxxxxxxxx |xxxxxxxxxxxxx |            0 |            0 |            0 |xxxxxxxxxxxxx |xxxxxxxxxxxxx |xxxxxxxxxxxxx |xxxxxxxxxxxxx |            0 |            0 |            0 |xxxxxxxxxxxxx |xxxxxxxxxxxxx |xxxxxxxxxxxxx |xxxxxxxxxxxxx |            0 |            0 |            0 |xxxxxxxxxxxxx |xxxxxxxxxxxxx |xxxxxxxxxxxxx |xxxxxxxxxxxxx |            0 |            0 |            0 |
bpred_bimod.jr_non_ras_seen.PP                   0 |            0 |            0 |xxxxxxxxxxxxx |xxxxxxxxxxxxx |xxxxxxxxxxxxx |xxxxxxxxxxxxx |            0 |            0 |            0 |xxxxxxxxxxxxx |xxxxxxxxxxxxx |xxxxxxxxxxxxx |xxxxxxxxxxxxx |            0 |            0 |            0 |xxxxxxxxxxxxx |xxxxxxxxxxxxx |xxxxxxxxxxxxx |xxxxxxxxxxxxx |            0 |            0 |            0 |xxxxxxxxxxxxx |xxxxxxxxxxxxx |xxxxxxxxxxxxx |xxxxxxxxxxxxx |            0 |            0 |            0 |xxxxxxxxxxxxx |xxxxxxxxxxxxx |xxxxxxxxxxxxx |xxxxxxxxxxxxx |            0 |            0 |            0 |xxxxxxxxxxxxx |xxxxxxxxxxxxx |xxxxxxxxxxxxx |xxxxxxxxxxxxx |            0 |            0 |            0 |xxxxxxxxxxxxx |xxxxxxxxxxxxx |xxxxxxxxxxxxx |xxxxxxxxxxxxx |            0 |            0 |            0 |xxxxxxxxxxxxx |xxxxxxxxxxxxx |xxxxxxxxxxxxx |xxxxxxxxxxxxx |            0 |            0 |            0 |xxxxxxxxxxxxx |xxxxxxxxxxxxx |xxxxxxxxxxxxx |xxxxxxxxxxxxx |            0 |            0 |            0 |xxxxxxxxxxxxx |xxxxxxxxxxxxx |xxxxxxxxxxxxx |xxxxxxxxxxxxx |            0 |            0 |            0 |
bpred_bimod.bpred_addr_rate                 0.7772 |       0.7772 |       0.7772 |xxxxxxxxxxxxx |xxxxxxxxxxxxx |xxxxxxxxxxxxx |xxxxxxxxxxxxx |       0.7882 |       0.7882 |       0.7882 |xxxxxxxxxxxxx |xxxxxxxxxxxxx |xxxxxxxxxxxxx |xxxxxxxxxxxxx |       0.7829 |       0.7829 |       0.7829 |xxxxxxxxxxxxx |xxxxxxxxxxxxx |xxxxxxxxxxxxx |xxxxxxxxxxxxx |       0.7791 |       0.7791 |       0.7791 |xxxxxxxxxxxxx |xxxxxxxxxxxxx |xxxxxxxxxxxxx |xxxxxxxxxxxxx |       0.7875 |       0.7875 |       0.7875 |xxxxxxxxxxxxx |xxxxxxxxxxxxx |xxxxxxxxxxxxx |xxxxxxxxxxxxx |       0.7860 |       0.7860 |       0.7860 |xxxxxxxxxxxxx |xxxxxxxxxxxxx |xxxxxxxxxxxxx |xxxxxxxxxxxxx |       0.7758 |       0.7758 |       0.7758 |xxxxxxxxxxxxx |xxxxxxxxxxxxx |xxxxxxxxxxxxx |xxxxxxxxxxxxx |       0.7744 |       0.7744 |       0.7744 |xxxxxxxxxxxxx |xxxxxxxxxxxxx |xxxxxxxxxxxxx |xxxxxxxxxxxxx |       0.7719 |       0.7719 |       0.7719 |xxxxxxxxxxxxx |xxxxxxxxxxxxx |xxxxxxxxxxxxx |xxxxxxxxxxxxx |       0.7770 |       0.7770 |       0.7770 |xxxxxxxxxxxxx |xxxxxxxxxxxxx |xxxxxxxxxxxxx |xxxxxxxxxxxxx |       0.7767 |       0.7767 |       0.7767 |
bpred_bimod.bpred_dir_rate                  0.7778 |       0.7778 |       0.7778 |xxxxxxxxxxxxx |xxxxxxxxxxxxx |xxxxxxxxxxxxx |xxxxxxxxxxxxx |       0.7884 |       0.7884 |       0.7884 |xxxxxxxxxxxxx |xxxxxxxxxxxxx |xxxxxxxxxxxxx |xxxxxxxxxxxxx |       0.7830 |       0.7830 |       0.7830 |xxxxxxxxxxxxx |xxxxxxxxxxxxx |xxxxxxxxxxxxx |xxxxxxxxxxxxx |       0.7792 |       0.7792 |       0.7792 |xxxxxxxxxxxxx |xxxxxxxxxxxxx |xxxxxxxxxxxxx |xxxxxxxxxxxxx |       0.7876 |       0.7876 |       0.7876 |xxxxxxxxxxxxx |xxxxxxxxxxxxx |xxxxxxxxxxxxx |xxxxxxxxxxxxx |       0.7860 |       0.7860 |       0.7860 |xxxxxxxxxxxxx |xxxxxxxxxxxxx |xxxxxxxxxxxxx |xxxxxxxxxxxxx |       0.7758 |       0.7758 |       0.7758 |xxxxxxxxxxxxx |xxxxxxxxxxxxx |xxxxxxxxxxxxx |xxxxxxxxxxxxx |       0.7744 |       0.7744 |       0.7744 |xxxxxxxxxxxxx |xxxxxxxxxxxxx |xxxxxxxxxxxxx |xxxxxxxxxxxxx |       0.7719 |       0.7719 |       0.7719 |xxxxxxxxxxxxx |xxxxxxxxxxxxx |xxxxxxxxxxxxx |xxxxxxxxxxxxx |       0.7770 |       0.7770 |       0.7770 |xxxxxxxxxxxxx |xxxxxxxxxxxxx |xxxxxxxxxxxxx |xxxxxxxxxxxxx |       0.7767 |       0.7767 |       0.7767 |
bpred_bimod.bpred_jr_rate                   0.9828 |       0.9828 |       0.9828 |xxxxxxxxxxxxx |xxxxxxxxxxxxx |xxxxxxxxxxxxx |xxxxxxxxxxxxx |       0.9828 |       0.9828 |       0.9828 |xxxxxxxxxxxxx |xxxxxxxxxxxxx |xxxxxxxxxxxxx |xxxxxxxxxxxxx |       0.9828 |       0.9828 |       0.9828 |xxxxxxxxxxxxx |xxxxxxxxxxxxx |xxxxxxxxxxxxx |xxxxxxxxxxxxx |       0.9828 |       0.9828 |       0.9828 |xxxxxxxxxxxxx |xxxxxxxxxxxxx |xxxxxxxxxxxxx |xxxxxxxxxxxxx |       0.9828 |       0.9828 |       0.9828 |xxxxxxxxxxxxx |xxxxxxxxxxxxx |xxxxxxxxxxxxx |xxxxxxxxxxxxx |       0.9828 |       0.9828 |       0.9828 |xxxxxxxxxxxxx |xxxxxxxxxxxxx |xxxxxxxxxxxxx |xxxxxxxxxxxxx |       0.9828 |       0.9828 |       0.9828 |xxxxxxxxxxxxx |xxxxxxxxxxxxx |xxxxxxxxxxxxx |xxxxxxxxxxxxx |       0.9828 |       0.9828 |       0.9828 |xxxxxxxxxxxxx |xxxxxxxxxxxxx |xxxxxxxxxxxxx |xxxxxxxxxxxxx |       0.9828 |       0.9828 |       0.9828 |xxxxxxxxxxxxx |xxxxxxxxxxxxx |xxxxxxxxxxxxx |xxxxxxxxxxxxx |       0.9828 |       0.9828 |       0.9828 |xxxxxxxxxxxxx |xxxxxxxxxxxxx |xxxxxxxxxxxxx |xxxxxxxxxxxxx |       0.9828 |       0.9828 |       0.9828 |
bpred_bimod.bpred_jr_non_ras_rate.PP       <error: |      <error: |      <error: |xxxxxxxxxxxxx |xxxxxxxxxxxxx |xxxxxxxxxxxxx |xxxxxxxxxxxxx |      <error: |      <error: |      <error: |xxxxxxxxxxxxx |xxxxxxxxxxxxx |xxxxxxxxxxxxx |xxxxxxxxxxxxx |      <error: |      <error: |      <error: |xxxxxxxxxxxxx |xxxxxxxxxxxxx |xxxxxxxxxxxxx |xxxxxxxxxxxxx |      <error: |      <error: |      <error: |xxxxxxxxxxxxx |xxxxxxxxxxxxx |xxxxxxxxxxxxx |xxxxxxxxxxxxx |      <error: |      <error: |      <error: |xxxxxxxxxxxxx |xxxxxxxxxxxxx |xxxxxxxxxxxxx |xxxxxxxxxxxxx |      <error: |      <error: |      <error: |xxxxxxxxxxxxx |xxxxxxxxxxxxx |xxxxxxxxxxxxx |xxxxxxxxxxxxx |      <error: |      <error: |      <error: |xxxxxxxxxxxxx |xxxxxxxxxxxxx |xxxxxxxxxxxxx |xxxxxxxxxxxxx |      <error: |      <error: |      <error: |xxxxxxxxxxxxx |xxxxxxxxxxxxx |xxxxxxxxxxxxx |xxxxxxxxxxxxx |      <error: |      <error: |      <error: |xxxxxxxxxxxxx |xxxxxxxxxxxxx |xxxxxxxxxxxxx |xxxxxxxxxxxxx |      <error: |      <error: |      <error: |xxxxxxxxxxxxx |xxxxxxxxxxxxx |xxxxxxxxxxxxx |xxxxxxxxxxxxx |      <error: |      <error: |      <error: |
bpred_bimod.retstack_pushes                     60 |           60 |           60 |xxxxxxxxxxxxx |xxxxxxxxxxxxx |xxxxxxxxxxxxx |xxxxxxxxxxxxx |           60 |           60 |           60 |xxxxxxxxxxxxx |xxxxxxxxxxxxx |xxxxxxxxxxxxx |xxxxxxxxxxxxx |           60 |           60 |           60 |xxxxxxxxxxxxx |xxxxxxxxxxxxx |xxxxxxxxxxxxx |xxxxxxxxxxxxx |           60 |           60 |           60 |xxxxxxxxxxxxx |xxxxxxxxxxxxx |xxxxxxxxxxxxx |xxxxxxxxxxxxx |           60 |           60 |           60 |xxxxxxxxxxxxx |xxxxxxxxxxxxx |xxxxxxxxxxxxx |xxxxxxxxxxxxx |           60 |           60 |           60 |xxxxxxxxxxxxx |xxxxxxxxxxxxx |xxxxxxxxxxxxx |xxxxxxxxxxxxx |           60 |           60 |           60 |xxxxxxxxxxxxx |xxxxxxxxxxxxx |xxxxxxxxxxxxx |xxxxxxxxxxxxx |           60 |           60 |           60 |xxxxxxxxxxxxx |xxxxxxxxxxxxx |xxxxxxxxxxxxx |xxxxxxxxxxxxx |           60 |           60 |           60 |xxxxxxxxxxxxx |xxxxxxxxxxxxx |xxxxxxxxxxxxx |xxxxxxxxxxxxx |           60 |           60 |           60 |xxxxxxxxxxxxx |xxxxxxxxxxxxx |xxxxxxxxxxxxx |xxxxxxxxxxxxx |           60 |           60 |           60 |
bpred_bimod.retstack_pops                       58 |           58 |           58 |xxxxxxxxxxxxx |xxxxxxxxxxxxx |xxxxxxxxxxxxx |xxxxxxxxxxxxx |           58 |           58 |           58 |xxxxxxxxxxxxx |xxxxxxxxxxxxx |xxxxxxxxxxxxx |xxxxxxxxxxxxx |           58 |           58 |           58 |xxxxxxxxxxxxx |xxxxxxxxxxxxx |xxxxxxxxxxxxx |xxxxxxxxxxxxx |           58 |           58 |           58 |xxxxxxxxxxxxx |xxxxxxxxxxxxx |xxxxxxxxxxxxx |xxxxxxxxxxxxx |           58 |           58 |           58 |xxxxxxxxxxxxx |xxxxxxxxxxxxx |xxxxxxxxxxxxx |xxxxxxxxxxxxx |           58 |           58 |           58 |xxxxxxxxxxxxx |xxxxxxxxxxxxx |xxxxxxxxxxxxx |xxxxxxxxxxxxx |           58 |           58 |           58 |xxxxxxxxxxxxx |xxxxxxxxxxxxx |xxxxxxxxxxxxx |xxxxxxxxxxxxx |           58 |           58 |           58 |xxxxxxxxxxxxx |xxxxxxxxxxxxx |xxxxxxxxxxxxx |xxxxxxxxxxxxx |           58 |           58 |           58 |xxxxxxxxxxxxx |xxxxxxxxxxxxx |xxxxxxxxxxxxx |xxxxxxxxxxxxx |           58 |           58 |           58 |xxxxxxxxxxxxx |xxxxxxxxxxxxx |xxxxxxxxxxxxx |xxxxxxxxxxxxx |           58 |           58 |           58 |
bpred_bimod.used_ras.PP                         58 |           58 |           58 |xxxxxxxxxxxxx |xxxxxxxxxxxxx |xxxxxxxxxxxxx |xxxxxxxxxxxxx |           58 |           58 |           58 |xxxxxxxxxxxxx |xxxxxxxxxxxxx |xxxxxxxxxxxxx |xxxxxxxxxxxxx |           58 |           58 |           58 |xxxxxxxxxxxxx |xxxxxxxxxxxxx |xxxxxxxxxxxxx |xxxxxxxxxxxxx |           58 |           58 |           58 |xxxxxxxxxxxxx |xxxxxxxxxxxxx |xxxxxxxxxxxxx |xxxxxxxxxxxxx |           58 |           58 |           58 |xxxxxxxxxxxxx |xxxxxxxxxxxxx |xxxxxxxxxxxxx |xxxxxxxxxxxxx |           58 |           58 |           58 |xxxxxxxxxxxxx |xxxxxxxxxxxxx |xxxxxxxxxxxxx |xxxxxxxxxxxxx |           58 |           58 |           58 |xxxxxxxxxxxxx |xxxxxxxxxxxxx |xxxxxxxxxxxxx |xxxxxxxxxxxxx |           58 |           58 |           58 |xxxxxxxxxxxxx |xxxxxxxxxxxxx |xxxxxxxxxxxxx |xxxxxxxxxxxxx |           58 |           58 |           58 |xxxxxxxxxxxxx |xxxxxxxxxxxxx |xxxxxxxxxxxxx |xxxxxxxxxxxxx |           58 |           58 |           58 |xxxxxxxxxxxxx |xxxxxxxxxxxxx |xxxxxxxxxxxxx |xxxxxxxxxxxxx |           58 |           58 |           58 |
bpred_bimod.ras_hits.PP                         57 |           57 |           57 |xxxxxxxxxxxxx |xxxxxxxxxxxxx |xxxxxxxxxxxxx |xxxxxxxxxxxxx |           57 |           57 |           57 |xxxxxxxxxxxxx |xxxxxxxxxxxxx |xxxxxxxxxxxxx |xxxxxxxxxxxxx |           57 |           57 |           57 |xxxxxxxxxxxxx |xxxxxxxxxxxxx |xxxxxxxxxxxxx |xxxxxxxxxxxxx |           57 |           57 |           57 |xxxxxxxxxxxxx |xxxxxxxxxxxxx |xxxxxxxxxxxxx |xxxxxxxxxxxxx |           57 |           57 |           57 |xxxxxxxxxxxxx |xxxxxxxxxxxxx |xxxxxxxxxxxxx |xxxxxxxxxxxxx |           57 |           57 |           57 |xxxxxxxxxxxxx |xxxxxxxxxxxxx |xxxxxxxxxxxxx |xxxxxxxxxxxxx |           57 |           57 |           57 |xxxxxxxxxxxxx |xxxxxxxxxxxxx |xxxxxxxxxxxxx |xxxxxxxxxxxxx |           57 |           57 |           57 |xxxxxxxxxxxxx |xxxxxxxxxxxxx |xxxxxxxxxxxxx |xxxxxxxxxxxxx |           57 |           57 |           57 |xxxxxxxxxxxxx |xxxxxxxxxxxxx |xxxxxxxxxxxxx |xxxxxxxxxxxxx |           57 |           57 |           57 |xxxxxxxxxxxxx |xxxxxxxxxxxxx |xxxxxxxxxxxxx |xxxxxxxxxxxxx |           57 |           57 |           57 |
bpred_bimod.ras_rate.PP                     0.9828 |       0.9828 |       0.9828 |xxxxxxxxxxxxx |xxxxxxxxxxxxx |xxxxxxxxxxxxx |xxxxxxxxxxxxx |       0.9828 |       0.9828 |       0.9828 |xxxxxxxxxxxxx |xxxxxxxxxxxxx |xxxxxxxxxxxxx |xxxxxxxxxxxxx |       0.9828 |       0.9828 |       0.9828 |xxxxxxxxxxxxx |xxxxxxxxxxxxx |xxxxxxxxxxxxx |xxxxxxxxxxxxx |       0.9828 |       0.9828 |       0.9828 |xxxxxxxxxxxxx |xxxxxxxxxxxxx |xxxxxxxxxxxxx |xxxxxxxxxxxxx |       0.9828 |       0.9828 |       0.9828 |xxxxxxxxxxxxx |xxxxxxxxxxxxx |xxxxxxxxxxxxx |xxxxxxxxxxxxx |       0.9828 |       0.9828 |       0.9828 |xxxxxxxxxxxxx |xxxxxxxxxxxxx |xxxxxxxxxxxxx |xxxxxxxxxxxxx |       0.9828 |       0.9828 |       0.9828 |xxxxxxxxxxxxx |xxxxxxxxxxxxx |xxxxxxxxxxxxx |xxxxxxxxxxxxx |       0.9828 |       0.9828 |       0.9828 |xxxxxxxxxxxxx |xxxxxxxxxxxxx |xxxxxxxxxxxxx |xxxxxxxxxxxxx |       0.9828 |       0.9828 |       0.9828 |xxxxxxxxxxxxx |xxxxxxxxxxxxx |xxxxxxxxxxxxx |xxxxxxxxxxxxx |       0.9828 |       0.9828 |       0.9828 |xxxxxxxxxxxxx |xxxxxxxxxxxxx |xxxxxxxxxxxxx |xxxxxxxxxxxxx |       0.9828 |       0.9828 |       0.9828 |
bpred_2lev.lookups                   xxxxxxxxxxxxx |xxxxxxxxxxxxx |xxxxxxxxxxxxx |       163706 |       163706 |       163706 |       163706 |xxxxxxxxxxxxx |xxxxxxxxxxxxx |xxxxxxxxxxxxx |       374837 |       374837 |       374837 |       374837 |xxxxxxxxxxxxx |xxxxxxxxxxxxx |xxxxxxxxxxxxx |       838061 |       838061 |       838061 |       838061 |xxxxxxxxxxxxx |xxxxxxxxxxxxx |xxxxxxxxxxxxx |      1773951 |      1773951 |      1773951 |      1773951 |xxxxxxxxxxxxx |xxxxxxxxxxxxx |xxxxxxxxxxxxx |      3789741 |      3789741 |      3789741 |      3789741 |xxxxxxxxxxxxx |xxxxxxxxxxxxx |xxxxxxxxxxxxx |      8195718 |      8195718 |      8195718 |      8195718 |xxxxxxxxxxxxx |xxxxxxxxxxxxx |xxxxxxxxxxxxx |     16944407 |     16944407 |     16944407 |     16944407 |xxxxxxxxxxxxx |xxxxxxxxxxxxx |xxxxxxxxxxxxx |     36386643 |     36386643 |     36386643 |     36386643 |xxxxxxxxxxxxx |xxxxxxxxxxxxx |xxxxxxxxxxxxx |     77253884 |     77253884 |     77253884 |     77253884 |xxxxxxxxxxxxx |xxxxxxxxxxxxx |xxxxxxxxxxxxx |    165916301 |    165916301 |    165916301 |    165916301 |xxxxxxxxxxxxx |xxxxxxxxxxxxx |xxxxxxxxxxxxx |    346027254 |    346027254 |    346027254 |    346027254 |
[...]
bpred_2lev.bpred_jr_non_ras_rate.PP  xxxxxxxxxxxxx |xxxxxxxxxxxxx |xxxxxxxxxxxxx |      <error: |      <error: |      <error: |      <error: |xxxxxxxxxxxxx |xxxxxxxxxxxxx |xxxxxxxxxxxxx |      <error: |      <error: |      <error: |      <error: |xxxxxxxxxxxxx |xxxxxxxxxxxxx |xxxxxxxxxxxxx |      <error: |      <error: |      <error: |      <error: |xxxxxxxxxxxxx |xxxxxxxxxxxxx |xxxxxxxxxxxxx |      <error: |      <error: |      <error: |      <error: |xxxxxxxxxxxxx |xxxxxxxxxxxxx |xxxxxxxxxxxxx |      <error: |      <error: |      <error: |      <error: |xxxxxxxxxxxxx |xxxxxxxxxxxxx |xxxxxxxxxxxxx |      <error: |      <error: |      <error: |      <error: |xxxxxxxxxxxxx |xxxxxxxxxxxxx |xxxxxxxxxxxxx |      <error: |      <error: |      <error: |      <error: |xxxxxxxxxxxxx |xxxxxxxxxxxxx |xxxxxxxxxxxxx |      <error: |      <error: |      <error: |      <error: |xxxxxxxxxxxxx |xxxxxxxxxxxxx |xxxxxxxxxxxxx |      <error: |      <error: |      <error: |      <error: |xxxxxxxxxxxxx |xxxxxxxxxxxxx |xxxxxxxxxxxxx |      <error: |      <error: |      <error: |      <error: |xxxxxxxxxxxxx |xxxxxxxxxxxxx |xxxxxxxxxxxxx |      <error: |      <error: |      <error: |      <error: |
bpred_2lev.retstack_pushes           xxxxxxxxxxxxx |xxxxxxxxxxxxx |xxxxxxxxxxxxx |           60 |           60 |           60 |           60 |xxxxxxxxxxxxx |xxxxxxxxxxxxx |xxxxxxxxxxxxx |           60 |           60 |           60 |           60 |xxxxxxxxxxxxx |xxxxxxxxxxxxx |xxxxxxxxxxxxx |           60 |           60 |           60 |           60 |xxxxxxxxxxxxx |xxxxxxxxxxxxx |xxxxxxxxxxxxx |           60 |           60 |           60 |           60 |xxxxxxxxxxxxx |xxxxxxxxxxxxx |xxxxxxxxxxxxx |           60 |           60 |           60 |           60 |xxxxxxxxxxxxx |xxxxxxxxxxxxx |xxxxxxxxxxxxx |           60 |           60 |           60 |           60 |xxxxxxxxxxxxx |xxxxxxxxxxxxx |xxxxxxxxxxxxx |           60 |           60 |           60 |           60 |xxxxxxxxxxxxx |xxxxxxxxxxxxx |xxxxxxxxxxxxx |           60 |           60 |           60 |           60 |xxxxxxxxxxxxx |xxxxxxxxxxxxx |xxxxxxxxxxxxx |           60 |           60 |           60 |           60 |xxxxxxxxxxxxx |xxxxxxxxxxxxx |xxxxxxxxxxxxx |           60 |           60 |           60 |           60 |xxxxxxxxxxxxx |xxxxxxxxxxxxx |xxxxxxxxxxxxx |           60 |           60 |           60 |           60 |
bpred_2lev.retstack_pops             xxxxxxxxxxxxx |xxxxxxxxxxxxx |xxxxxxxxxxxxx |           58 |           58 |           58 |           58 |xxxxxxxxxxxxx |xxxxxxxxxxxxx |xxxxxxxxxxxxx |           58 |           58 |           58 |           58 |xxxxxxxxxxxxx |xxxxxxxxxxxxx |xxxxxxxxxxxxx |           58 |           58 |           58 |           58 |xxxxxxxxxxxxx |xxxxxxxxxxxxx |xxxxxxxxxxxxx |           58 |           58 |           58 |           58 |xxxxxxxxxxxxx |xxxxxxxxxxxxx |xxxxxxxxxxxxx |           58 |           58 |           58 |           58 |xxxxxxxxxxxxx |xxxxxxxxxxxxx |xxxxxxxxxxxxx |           58 |           58 |           58 |           58 |xxxxxxxxxxxxx |xxxxxxxxxxxxx |xxxxxxxxxxxxx |           58 |           58 |           58 |           58 |xxxxxxxxxxxxx |xxxxxxxxxxxxx |xxxxxxxxxxxxx |           58 |           58 |           58 |           58 |xxxxxxxxxxxxx |xxxxxxxxxxxxx |xxxxxxxxxxxxx |           58 |           58 |           58 |           58 |xxxxxxxxxxxxx |xxxxxxxxxxxxx |xxxxxxxxxxxxx |           58 |           58 |           58 |           58 |xxxxxxxxxxxxx |xxxxxxxxxxxxx |xxxxxxxxxxxxx |           58 |           58 |           58 |           58 |
bpred_2lev.used_ras.PP               xxxxxxxxxxxxx |xxxxxxxxxxxxx |xxxxxxxxxxxxx |           58 |           58 |           58 |           58 |xxxxxxxxxxxxx |xxxxxxxxxxxxx |xxxxxxxxxxxxx |           58 |           58 |           58 |           58 |xxxxxxxxxxxxx |xxxxxxxxxxxxx |xxxxxxxxxxxxx |           58 |           58 |           58 |           58 |xxxxxxxxxxxxx |xxxxxxxxxxxxx |xxxxxxxxxxxxx |           58 |           58 |           58 |           58 |xxxxxxxxxxxxx |xxxxxxxxxxxxx |xxxxxxxxxxxxx |           58 |           58 |           58 |           58 |xxxxxxxxxxxxx |xxxxxxxxxxxxx |xxxxxxxxxxxxx |           58 |           58 |           58 |           58 |xxxxxxxxxxxxx |xxxxxxxxxxxxx |xxxxxxxxxxxxx |           58 |           58 |           58 |           58 |xxxxxxxxxxxxx |xxxxxxxxxxxxx |xxxxxxxxxxxxx |           58 |           58 |           58 |           58 |xxxxxxxxxxxxx |xxxxxxxxxxxxx |xxxxxxxxxxxxx |           58 |           58 |           58 |           58 |xxxxxxxxxxxxx |xxxxxxxxxxxxx |xxxxxxxxxxxxx |           58 |           58 |           58 |           58 |xxxxxxxxxxxxx |xxxxxxxxxxxxx |xxxxxxxxxxxxx |           58 |           58 |           58 |           58 |
bpred_2lev.ras_hits.PP               xxxxxxxxxxxxx |xxxxxxxxxxxxx |xxxxxxxxxxxxx |           57 |           57 |           57 |           57 |xxxxxxxxxxxxx |xxxxxxxxxxxxx |xxxxxxxxxxxxx |           57 |           57 |           57 |           57 |xxxxxxxxxxxxx |xxxxxxxxxxxxx |xxxxxxxxxxxxx |           57 |           57 |           57 |           57 |xxxxxxxxxxxxx |xxxxxxxxxxxxx |xxxxxxxxxxxxx |           57 |           57 |           57 |           57 |xxxxxxxxxxxxx |xxxxxxxxxxxxx |xxxxxxxxxxxxx |           57 |           57 |           57 |           57 |xxxxxxxxxxxxx |xxxxxxxxxxxxx |xxxxxxxxxxxxx |           57 |           57 |           57 |           57 |xxxxxxxxxxxxx |xxxxxxxxxxxxx |xxxxxxxxxxxxx |           57 |           57 |           57 |           57 |xxxxxxxxxxxxx |xxxxxxxxxxxxx |xxxxxxxxxxxxx |           57 |           57 |           57 |           57 |xxxxxxxxxxxxx |xxxxxxxxxxxxx |xxxxxxxxxxxxx |           57 |           57 |           57 |           57 |xxxxxxxxxxxxx |xxxxxxxxxxxxx |xxxxxxxxxxxxx |           57 |           57 |           57 |           57 |xxxxxxxxxxxxx |xxxxxxxxxxxxx |xxxxxxxxxxxxx |           57 |           57 |           57 |           57 |
bpred_2lev.ras_rate.PP               xxxxxxxxxxxxx |xxxxxxxxxxxxx |xxxxxxxxxxxxx |       0.9828 |       0.9828 |       0.9828 |       0.9828 |xxxxxxxxxxxxx |xxxxxxxxxxxxx |xxxxxxxxxxxxx |       0.9828 |       0.9828 |       0.9828 |       0.9828 |xxxxxxxxxxxxx |xxxxxxxxxxxxx |xxxxxxxxxxxxx |       0.9828 |       0.9828 |       0.9828 |       0.9828 |xxxxxxxxxxxxx |xxxxxxxxxxxxx |xxxxxxxxxxxxx |       0.9828 |       0.9828 |       0.9828 |       0.9828 |xxxxxxxxxxxxx |xxxxxxxxxxxxx |xxxxxxxxxxxxx |       0.9828 |       0.9828 |       0.9828 |       0.9828 |xxxxxxxxxxxxx |xxxxxxxxxxxxx |xxxxxxxxxxxxx |       0.9828 |       0.9828 |       0.9828 |       0.9828 |xxxxxxxxxxxxx |xxxxxxxxxxxxx |xxxxxxxxxxxxx |       0.9828 |       0.9828 |       0.9828 |       0.9828 |xxxxxxxxxxxxx |xxxxxxxxxxxxx |xxxxxxxxxxxxx |       0.9828 |       0.9828 |       0.9828 |       0.9828 |xxxxxxxxxxxxx |xxxxxxxxxxxxx |xxxxxxxxxxxxx |       0.9828 |       0.9828 |       0.9828 |       0.9828 |xxxxxxxxxxxxx |xxxxxxxxxxxxx |xxxxxxxxxxxxx |       0.9828 |       0.9828 |       0.9828 |       0.9828 |xxxxxxxxxxxxx |xxxxxxxxxxxxx |xxxxxxxxxxxxx |       0.9828 |       0.9828 |       0.9828 |       0.9828 |

Command list: 
	sslittle-na-sstrix-gcc -Wall -O3 -funroll-loops -finline-functions  -DRANDOM_SIZE=4096 -DOFFSET=8 -DSORT=shellsort sorts/shellsort1700755725.c simpleMain.c -o shellsort1009492595
	sim-cache -cache:dl1 dl1:256:32:1:l -cache:dl2 dl2:131072:32:1:l -cache:il1 il1:256:32:1:l -cache:il2 dl2 shellsort1009492595
	sim-cache -cache:dl1 dl1:256:32:1:l -cache:dl2 dl2:65536:32:1:l -cache:il1 il1:256:32:1:l -cache:il2 dl2 shellsort1009492595
	sim-cache -cache:dl1 dl1:1:32:256:l -cache:dl2 dl2:1:32:131072:l -cache:il1 il1:1:32:256:l -cache:il2 dl2 shellsort1009492595
	sim-cache -cache:dl1 dl1:1:32:256:l -cache:dl2 dl2:1:32:65536:l -cache:il1 il1:1:32:256:l -cache:il2 dl2 shellsort1009492595
	sim-bpred -bpred bimod -bpred:bimod 512 shellsort1009492595
	sim-bpred -bpred bimod -bpred:bimod 1024 shellsort1009492595
	sim-bpred -bpred bimod -bpred:bimod 2048 shellsort1009492595
	sim-bpred -bpred 2lev -bpred:2lev 1 512 10 1 shellsort1009492595
	sim-bpred -bpred 2lev -bpred:2lev 1 1024 10 1 shellsort1009492595
	sim-bpred -bpred 2lev -bpred:2lev 1 2048 10 1 shellsort1009492595
	sim-bpred -bpred 2lev -bpred:2lev 1 4096 10 1 shellsort1009492595
	sslittle-na-sstrix-gcc -Wall -O3 -funroll-loops -finline-functions  -DRANDOM_SIZE=8192 -DOFFSET=8 -DSORT=shellsort sorts/shellsort1700755725.c simpleMain.c -o shellsort1009492595
	sim-cache -cache:dl1 dl1:256:32:1:l -cache:dl2 dl2:131072:32:1:l -cache:il1 il1:256:32:1:l -cache:il2 dl2 shellsort1009492595
	sim-cache -cache:dl1 dl1:256:32:1:l -cache:dl2 dl2:65536:32:1:l -cache:il1 il1:256:32:1:l -cache:il2 dl2 shellsort1009492595
	sim-cache -cache:dl1 dl1:1:32:256:l -cache:dl2 dl2:1:32:131072:l -cache:il1 il1:1:32:256:l -cache:il2 dl2 shellsort1009492595
	sim-cache -cache:dl1 dl1:1:32:256:l -cache:dl2 dl2:1:32:65536:l -cache:il1 il1:1:32:256:l -cache:il2 dl2 shellsort1009492595
	sim-bpred -bpred bimod -bpred:bimod 512 shellsort1009492595
	sim-bpred -bpred bimod -bpred:bimod 1024 shellsort1009492595
	sim-bpred -bpred bimod -bpred:bimod 2048 shellsort1009492595
	sim-bpred -bpred 2lev -bpred:2lev 1 512 10 1 shellsort1009492595
	sim-bpred -bpred 2lev -bpred:2lev 1 1024 10 1 shellsort1009492595
	sim-bpred -bpred 2lev -bpred:2lev 1 2048 10 1 shellsort1009492595
	sim-bpred -bpred 2lev -bpred:2lev 1 4096 10 1 shellsort1009492595
	sslittle-na-sstrix-gcc -Wall -O3 -funroll-loops -finline-functions  -DRANDOM_SIZE=16384 -DOFFSET=8 -DSORT=shellsort sorts/shellsort1700755725.c simpleMain.c -o shellsort1009492595
	sim-cache -cache:dl1 dl1:256:32:1:l -cache:dl2 dl2:131072:32:1:l -cache:il1 il1:256:32:1:l -cache:il2 dl2 shellsort1009492595
	sim-cache -cache:dl1 dl1:256:32:1:l -cache:dl2 dl2:65536:32:1:l -cache:il1 il1:256:32:1:l -cache:il2 dl2 shellsort1009492595
	sim-cache -cache:dl1 dl1:1:32:256:l -cache:dl2 dl2:1:32:131072:l -cache:il1 il1:1:32:256:l -cache:il2 dl2 shellsort1009492595
	sim-cache -cache:dl1 dl1:1:32:256:l -cache:dl2 dl2:1:32:65536:l -cache:il1 il1:1:32:256:l -cache:il2 dl2 shellsort1009492595
	sim-bpred -bpred bimod -bpred:bimod 512 shellsort1009492595
	sim-bpred -bpred bimod -bpred:bimod 1024 shellsort1009492595
	sim-bpred -bpred bimod -bpred:bimod 2048 shellsort1009492595
	sim-bpred -bpred 2lev -bpred:2lev 1 512 10 1 shellsort1009492595
	sim-bpred -bpred 2lev -bpred:2lev 1 1024 10 1 shellsort1009492595
	sim-bpred -bpred 2lev -bpred:2lev 1 2048 10 1 shellsort1009492595
	sim-bpred -bpred 2lev -bpred:2lev 1 4096 10 1 shellsort1009492595
	sslittle-na-sstrix-gcc -Wall -O3 -funroll-loops -finline-functions  -DRANDOM_SIZE=32768 -DOFFSET=8 -DSORT=shellsort sorts/shellsort1700755725.c simpleMain.c -o shellsort1009492595
	sim-cache -cache:dl1 dl1:256:32:1:l -cache:dl2 dl2:131072:32:1:l -cache:il1 il1:256:32:1:l -cache:il2 dl2 shellsort1009492595
	sim-cache -cache:dl1 dl1:256:32:1:l -cache:dl2 dl2:65536:32:1:l -cache:il1 il1:256:32:1:l -cache:il2 dl2 shellsort1009492595
	sim-cache -cache:dl1 dl1:1:32:256:l -cache:dl2 dl2:1:32:131072:l -cache:il1 il1:1:32:256:l -cache:il2 dl2 shellsort1009492595
	sim-cache -cache:dl1 dl1:1:32:256:l -cache:dl2 dl2:1:32:65536:l -cache:il1 il1:1:32:256:l -cache:il2 dl2 shellsort1009492595
	sim-bpred -bpred bimod -bpred:bimod 512 shellsort1009492595
	sim-bpred -bpred bimod -bpred:bimod 1024 shellsort1009492595
	sim-bpred -bpred bimod -bpred:bimod 2048 shellsort1009492595
	sim-bpred -bpred 2lev -bpred:2lev 1 512 10 1 shellsort1009492595
	sim-bpred -bpred 2lev -bpred:2lev 1 1024 10 1 shellsort1009492595
	sim-bpred -bpred 2lev -bpred:2lev 1 2048 10 1 shellsort1009492595
	sim-bpred -bpred 2lev -bpred:2lev 1 4096 10 1 shellsort1009492595
	sslittle-na-sstrix-gcc -Wall -O3 -funroll-loops -finline-functions  -DRANDOM_SIZE=65536 -DOFFSET=8 -DSORT=shellsort sorts/shellsort1700755725.c simpleMain.c -o shellsort1009492595
	sim-cache -cache:dl1 dl1:256:32:1:l -cache:dl2 dl2:131072:32:1:l -cache:il1 il1:256:32:1:l -cache:il2 dl2 shellsort1009492595
	sim-cache -cache:dl1 dl1:256:32:1:l -cache:dl2 dl2:65536:32:1:l -cache:il1 il1:256:32:1:l -cache:il2 dl2 shellsort1009492595
	sim-cache -cache:dl1 dl1:1:32:256:l -cache:dl2 dl2:1:32:131072:l -cache:il1 il1:1:32:256:l -cache:il2 dl2 shellsort1009492595
	sim-cache -cache:dl1 dl1:1:32:256:l -cache:dl2 dl2:1:32:65536:l -cache:il1 il1:1:32:256:l -cache:il2 dl2 shellsort1009492595
	sim-bpred -bpred bimod -bpred:bimod 512 shellsort1009492595
	sim-bpred -bpred bimod -bpred:bimod 1024 shellsort1009492595
	sim-bpred -bpred bimod -bpred:bimod 2048 shellsort1009492595
	sim-bpred -bpred 2lev -bpred:2lev 1 512 10 1 shellsort1009492595
	sim-bpred -bpred 2lev -bpred:2lev 1 1024 10 1 shellsort1009492595
	sim-bpred -bpred 2lev -bpred:2lev 1 2048 10 1 shellsort1009492595
	sim-bpred -bpred 2lev -bpred:2lev 1 4096 10 1 shellsort1009492595
	sslittle-na-sstrix-gcc -Wall -O3 -funroll-loops -finline-functions  -DRANDOM_SIZE=131072 -DOFFSET=8 -DSORT=shellsort sorts/shellsort1700755725.c simpleMain.c -o shellsort1009492595
	sim-cache -cache:dl1 dl1:256:32:1:l -cache:dl2 dl2:131072:32:1:l -cache:il1 il1:256:32:1:l -cache:il2 dl2 shellsort1009492595
	sim-cache -cache:dl1 dl1:256:32:1:l -cache:dl2 dl2:65536:32:1:l -cache:il1 il1:256:32:1:l -cache:il2 dl2 shellsort1009492595
	sim-cache -cache:dl1 dl1:1:32:256:l -cache:dl2 dl2:1:32:131072:l -cache:il1 il1:1:32:256:l -cache:il2 dl2 shellsort1009492595
	sim-cache -cache:dl1 dl1:1:32:256:l -cache:dl2 dl2:1:32:65536:l -cache:il1 il1:1:32:256:l -cache:il2 dl2 shellsort1009492595
	sim-bpred -bpred bimod -bpred:bimod 512 shellsort1009492595
	sim-bpred -bpred bimod -bpred:bimod 1024 shellsort1009492595
	sim-bpred -bpred bimod -bpred:bimod 2048 shellsort1009492595
	sim-bpred -bpred 2lev -bpred:2lev 1 512 10 1 shellsort1009492595
	sim-bpred -bpred 2lev -bpred:2lev 1 1024 10 1 shellsort1009492595
	sim-bpred -bpred 2lev -bpred:2lev 1 2048 10 1 shellsort1009492595
	sim-bpred -bpred 2lev -bpred:2lev 1 4096 10 1 shellsort1009492595
	sslittle-na-sstrix-gcc -Wall -O3 -funroll-loops -finline-functions  -DRANDOM_SIZE=262144 -DOFFSET=8 -DSORT=shellsort sorts/shellsort1700755725.c simpleMain.c -o shellsort1009492595
	sim-cache -cache:dl1 dl1:256:32:1:l -cache:dl2 dl2:131072:32:1:l -cache:il1 il1:256:32:1:l -cache:il2 dl2 shellsort1009492595
	sim-cache -cache:dl1 dl1:256:32:1:l -cache:dl2 dl2:65536:32:1:l -cache:il1 il1:256:32:1:l -cache:il2 dl2 shellsort1009492595
	sim-cache -cache:dl1 dl1:1:32:256:l -cache:dl2 dl2:1:32:131072:l -cache:il1 il1:1:32:256:l -cache:il2 dl2 shellsort1009492595
	sim-cache -cache:dl1 dl1:1:32:256:l -cache:dl2 dl2:1:32:65536:l -cache:il1 il1:1:32:256:l -cache:il2 dl2 shellsort1009492595
	sim-bpred -bpred bimod -bpred:bimod 512 shellsort1009492595
	sim-bpred -bpred bimod -bpred:bimod 1024 shellsort1009492595
	sim-bpred -bpred bimod -bpred:bimod 2048 shellsort1009492595
	sim-bpred -bpred 2lev -bpred:2lev 1 512 10 1 shellsort1009492595
	sim-bpred -bpred 2lev -bpred:2lev 1 1024 10 1 shellsort1009492595
	sim-bpred -bpred 2lev -bpred:2lev 1 2048 10 1 shellsort1009492595
	sim-bpred -bpred 2lev -bpred:2lev 1 4096 10 1 shellsort1009492595
	sslittle-na-sstrix-gcc -Wall -O3 -funroll-loops -finline-functions  -DRANDOM_SIZE=524288 -DOFFSET=8 -DSORT=shellsort sorts/shellsort1700755725.c simpleMain.c -o shellsort1009492595
	sim-cache -cache:dl1 dl1:256:32:1:l -cache:dl2 dl2:131072:32:1:l -cache:il1 il1:256:32:1:l -cache:il2 dl2 shellsort1009492595
	sim-cache -cache:dl1 dl1:256:32:1:l -cache:dl2 dl2:65536:32:1:l -cache:il1 il1:256:32:1:l -cache:il2 dl2 shellsort1009492595
	sim-cache -cache:dl1 dl1:1:32:256:l -cache:dl2 dl2:1:32:131072:l -cache:il1 il1:1:32:256:l -cache:il2 dl2 shellsort1009492595
	sim-cache -cache:dl1 dl1:1:32:256:l -cache:dl2 dl2:1:32:65536:l -cache:il1 il1:1:32:256:l -cache:il2 dl2 shellsort1009492595
	sim-bpred -bpred bimod -bpred:bimod 512 shellsort1009492595
	sim-bpred -bpred bimod -bpred:bimod 1024 shellsort1009492595
	sim-bpred -bpred bimod -bpred:bimod 2048 shellsort1009492595
	sim-bpred -bpred 2lev -bpred:2lev 1 512 10 1 shellsort1009492595
	sim-bpred -bpred 2lev -bpred:2lev 1 1024 10 1 shellsort1009492595
	sim-bpred -bpred 2lev -bpred:2lev 1 2048 10 1 shellsort1009492595
	sim-bpred -bpred 2lev -bpred:2lev 1 4096 10 1 shellsort1009492595
	sslittle-na-sstrix-gcc -Wall -O3 -funroll-loops -finline-functions  -DRANDOM_SIZE=1048576 -DOFFSET=8 -DSORT=shellsort sorts/shellsort1700755725.c simpleMain.c -o shellsort1009492595
	sim-cache -cache:dl1 dl1:256:32:1:l -cache:dl2 dl2:131072:32:1:l -cache:il1 il1:256:32:1:l -cache:il2 dl2 shellsort1009492595
	sim-cache -cache:dl1 dl1:256:32:1:l -cache:dl2 dl2:65536:32:1:l -cache:il1 il1:256:32:1:l -cache:il2 dl2 shellsort1009492595
	sim-cache -cache:dl1 dl1:1:32:256:l -cache:dl2 dl2:1:32:131072:l -cache:il1 il1:1:32:256:l -cache:il2 dl2 shellsort1009492595
	sim-cache -cache:dl1 dl1:1:32:256:l -cache:dl2 dl2:1:32:65536:l -cache:il1 il1:1:32:256:l -cache:il2 dl2 shellsort1009492595
	sim-bpred -bpred bimod -bpred:bimod 512 shellsort1009492595
	sim-bpred -bpred bimod -bpred:bimod 1024 shellsort1009492595
	sim-bpred -bpred bimod -bpred:bimod 2048 shellsort1009492595
	sim-bpred -bpred 2lev -bpred:2lev 1 512 10 1 shellsort1009492595
	sim-bpred -bpred 2lev -bpred:2lev 1 1024 10 1 shellsort1009492595
	sim-bpred -bpred 2lev -bpred:2lev 1 2048 10 1 shellsort1009492595
	sim-bpred -bpred 2lev -bpred:2lev 1 4096 10 1 shellsort1009492595
	sslittle-na-sstrix-gcc -Wall -O3 -funroll-loops -finline-functions  -DRANDOM_SIZE=2097152 -DOFFSET=8 -DSORT=shellsort sorts/shellsort1700755725.c simpleMain.c -o shellsort1009492595
	sim-cache -cache:dl1 dl1:256:32:1:l -cache:dl2 dl2:131072:32:1:l -cache:il1 il1:256:32:1:l -cache:il2 dl2 shellsort1009492595
	sim-cache -cache:dl1 dl1:256:32:1:l -cache:dl2 dl2:65536:32:1:l -cache:il1 il1:256:32:1:l -cache:il2 dl2 shellsort1009492595
	sim-cache -cache:dl1 dl1:1:32:256:l -cache:dl2 dl2:1:32:131072:l -cache:il1 il1:1:32:256:l -cache:il2 dl2 shellsort1009492595
	sim-cache -cache:dl1 dl1:1:32:256:l -cache:dl2 dl2:1:32:65536:l -cache:il1 il1:1:32:256:l -cache:il2 dl2 shellsort1009492595
	sim-bpred -bpred bimod -bpred:bimod 512 shellsort1009492595
	sim-bpred -bpred bimod -bpred:bimod 1024 shellsort1009492595
	sim-bpred -bpred bimod -bpred:bimod 2048 shellsort1009492595
	sim-bpred -bpred 2lev -bpred:2lev 1 512 10 1 shellsort1009492595
	sim-bpred -bpred 2lev -bpred:2lev 1 1024 10 1 shellsort1009492595
	sim-bpred -bpred 2lev -bpred:2lev 1 2048 10 1 shellsort1009492595
	sim-bpred -bpred 2lev -bpred:2lev 1 4096 10 1 shellsort1009492595
	sslittle-na-sstrix-gcc -Wall -O3 -funroll-loops -finline-functions  -DRANDOM_SIZE=4194304 -DOFFSET=8 -DSORT=shellsort sorts/shellsort1700755725.c simpleMain.c -o shellsort1009492595
	sim-cache -cache:dl1 dl1:256:32:1:l -cache:dl2 dl2:131072:32:1:l -cache:il1 il1:256:32:1:l -cache:il2 dl2 shellsort1009492595
	sim-cache -cache:dl1 dl1:256:32:1:l -cache:dl2 dl2:65536:32:1:l -cache:il1 il1:256:32:1:l -cache:il2 dl2 shellsort1009492595
	sim-cache -cache:dl1 dl1:1:32:256:l -cache:dl2 dl2:1:32:131072:l -cache:il1 il1:1:32:256:l -cache:il2 dl2 shellsort1009492595
	sim-cache -cache:dl1 dl1:1:32:256:l -cache:dl2 dl2:1:32:65536:l -cache:il1 il1:1:32:256:l -cache:il2 dl2 shellsort1009492595
	sim-bpred -bpred bimod -bpred:bimod 512 shellsort1009492595
	sim-bpred -bpred bimod -bpred:bimod 1024 shellsort1009492595
	sim-bpred -bpred bimod -bpred:bimod 2048 shellsort1009492595
	sim-bpred -bpred 2lev -bpred:2lev 1 512 10 1 shellsort1009492595
	sim-bpred -bpred 2lev -bpred:2lev 1 1024 10 1 shellsort1009492595
	sim-bpred -bpred 2lev -bpred:2lev 1 2048 10 1 shellsort1009492595
	sim-bpred -bpred 2lev -bpred:2lev 1 4096 10 1 shellsort1009492595
