Fri Jul  8 12:59:43 2005
Run as: "./do_simple -c random.org4 -o 4 tiled_mergesort"
-------------------------------------------------------------------------------------------------
sim-cache                                     4096 |         4096 |         4096 |         4096 |         8192 |         8192 |         8192 |         8192 |        16384 |        16384 |        16384 |        16384 |        32768 |        32768 |        32768 |        32768 |        65536 |        65536 |        65536 |        65536 |       131072 |       131072 |       131072 |       131072 |       262144 |       262144 |       262144 |       262144 |       524288 |       524288 |       524288 |       524288 |      1048576 |      1048576 |      1048576 |      1048576 |      2097152 |      2097152 |      2097152 |      2097152 |      4194304 |      4194304 |      4194304 |      4194304 |
-cache:dl1 dl1:256:32:1:l -cache:dl2 dl2:131072:32:1:l -cache:il1 il1:256:32:1:l -cache:il2 dl2
-cache:dl1 dl1:256:32:1:l -cache:dl2 dl2:65536:32:1:l -cache:il1 il1:256:32:1:l -cache:il2 dl2
-cache:dl1 dl1:1:32:256:l -cache:dl2 dl2:1:32:131072:l -cache:il1 il1:1:32:256:l -cache:il2 dl2
-cache:dl1 dl1:1:32:256:l -cache:dl2 dl2:1:32:65536:l -cache:il1 il1:1:32:256:l -cache:il2 dl2
-------------------------------------------------------------------------------------------------
sim_num_insn                                863382 |       863382 |       863382 |       863382 |      1755608 |      1755608 |      1755608 |      1755608 |      3964860 |      3964860 |      3964860 |      3964860 |      8069679 |      8069679 |      8069679 |      8069679 |     17984534 |     17984534 |     17984534 |     17984534 |     36582817 |     36582817 |     36582817 |     36582817 |     80591391 |     80591391 |     80591391 |     80591391 |    168455125 |    168455125 |    168455125 |    168455125 |    366606085 |    366606085 |    366606085 |    366606085 |    742964077 |    742964077 |    742964077 |    742964077 |   1604691721 |   1604691721 |   1604691721 |   1604691721 |
sim_num_refs                                229677 |       229677 |       229677 |       229677 |       473083 |       473083 |       473083 |       473083 |      1052711 |      1052711 |      1052711 |      1052711 |      2172545 |      2172545 |      2172545 |      2172545 |      4785249 |      4785249 |      4785249 |      4785249 |      9857169 |      9857169 |      9857169 |      9857169 |     21492469 |     21492469 |     21492469 |     21492469 |     45713200 |     45713200 |     45713200 |     45713200 |     98536297 |     98536297 |     98536297 |     98536297 |    201686394 |    201686394 |    201686394 |    201686394 |    431838683 |    431838683 |    431838683 |    431838683 |
sim_elapsed_time                                 1 |            1 |           10 |            5 |            1 |            1 |           16 |            8 |            1 |            1 |           27 |           14 |            2 |            3 |           48 |           25 |            5 |            5 |           91 |           44 |           11 |           10 |          167 |           78 |           23 |           22 |          284 |          112 |           47 |           46 |          396 |          153 |          105 |          109 |          498 |          197 |          205 |          207 |          579 |          310 |          444 |          439 |          832 |          578 |
sim_inst_rate                          863382.0000 |  863382.0000 |   86338.2000 |  172676.4000 | 1755608.0000 | 1755608.0000 |  109725.5000 |  219451.0000 | 3964860.0000 | 3964860.0000 |  146846.6667 |  283204.2857 | 4034839.5000 | 2689893.0000 |  168118.3125 |  322787.1600 | 3596906.8000 | 3596906.8000 |  197632.2418 |  408739.4091 | 3325710.6364 | 3658281.7000 |  219058.7844 |  469010.4744 | 3503973.5217 | 3663245.0455 |  283772.5035 |  719565.9911 | 3584151.5957 | 3662067.9348 |  425391.7298 | 1101013.8889 | 3491486.5238 | 3363358.5780 |  736156.7972 | 1860944.5939 | 3624215.0098 | 3589198.4396 | 1283184.9344 | 2396658.3129 | 3614170.5428 | 3655334.2164 | 1928716.0108 | 2776283.2543 |
il1.accesses                                863382 |       863382 |       863382 |       863382 |      1755608 |      1755608 |      1755608 |      1755608 |      3964860 |      3964860 |      3964860 |      3964860 |      8069679 |      8069679 |      8069679 |      8069679 |     17984534 |     17984534 |     17984534 |     17984534 |     36582817 |     36582817 |     36582817 |     36582817 |     80591391 |     80591391 |     80591391 |     80591391 |    168455125 |    168455125 |    168455125 |    168455125 |    366606085 |    366606085 |    366606085 |    366606085 |    742964077 |    742964077 |    742964077 |    742964077 |   1604691721 |   1604691721 |   1604691721 |   1604691721 |
il1.hits                                    862712 |       862712 |       862807 |       862807 |      1754917 |      1754917 |      1755009 |      1755009 |      3964186 |      3964186 |      3964286 |      3964286 |      8068988 |      8068988 |      8069080 |      8069080 |     17983859 |     17983859 |     17983955 |     17983955 |     36582124 |     36582124 |     36582217 |     36582217 |     80590718 |     80590718 |     80590814 |     80590814 |    168452845 |    168452845 |    168454451 |    168454451 |    366602279 |    366602279 |    366605429 |    366605429 |    742957153 |    742957153 |    742963403 |    742963403 |   1604678651 |   1604678651 |   1604691065 |   1604691065 |
il1.misses                                     670 |          670 |          575 |          575 |          691 |          691 |          599 |          599 |          674 |          674 |          574 |          574 |          691 |          691 |          599 |          599 |          675 |          675 |          579 |          579 |          693 |          693 |          600 |          600 |          673 |          673 |          577 |          577 |         2280 |         2280 |          674 |          674 |         3806 |         3806 |          656 |          656 |         6924 |         6924 |          674 |          674 |        13070 |        13070 |          656 |          656 |
il1.replacements                               427 |          427 |          319 |          319 |          447 |          447 |          343 |          343 |          433 |          433 |          318 |          318 |          447 |          447 |          343 |          343 |          433 |          433 |          323 |          323 |          449 |          449 |          344 |          344 |          444 |          444 |          321 |          321 |         2055 |         2055 |          418 |          418 |         3583 |         3583 |          400 |          400 |         6699 |         6699 |          418 |          418 |        12847 |        12847 |          400 |          400 |
il1.writebacks                                   0 |            0 |            0 |            0 |            0 |            0 |            0 |            0 |            0 |            0 |            0 |            0 |            0 |            0 |            0 |            0 |            0 |            0 |            0 |            0 |            0 |            0 |            0 |            0 |            0 |            0 |            0 |            0 |            0 |            0 |            0 |            0 |            0 |            0 |            0 |            0 |            0 |            0 |            0 |            0 |            0 |            0 |            0 |            0 |
il1.invalidations                                0 |            0 |            0 |            0 |            0 |            0 |            0 |            0 |            0 |            0 |            0 |            0 |            0 |            0 |            0 |            0 |            0 |            0 |            0 |            0 |            0 |            0 |            0 |            0 |            0 |            0 |            0 |            0 |            0 |            0 |            0 |            0 |            0 |            0 |            0 |            0 |            0 |            0 |            0 |            0 |            0 |            0 |            0 |            0 |
il1.miss_rate                               0.0008 |       0.0008 |       0.0007 |       0.0007 |       0.0004 |       0.0004 |       0.0003 |       0.0003 |       0.0002 |       0.0002 |       0.0001 |       0.0001 |       0.0001 |       0.0001 |       0.0001 |       0.0001 |       0.0000 |       0.0000 |       0.0000 |       0.0000 |       0.0000 |       0.0000 |       0.0000 |       0.0000 |       0.0000 |       0.0000 |       0.0000 |       0.0000 |       0.0000 |       0.0000 |       0.0000 |       0.0000 |       0.0000 |       0.0000 |       0.0000 |       0.0000 |       0.0000 |       0.0000 |       0.0000 |       0.0000 |       0.0000 |       0.0000 |       0.0000 |       0.0000 |
il1.repl_rate                               0.0005 |       0.0005 |       0.0004 |       0.0004 |       0.0003 |       0.0003 |       0.0002 |       0.0002 |       0.0001 |       0.0001 |       0.0001 |       0.0001 |       0.0001 |       0.0001 |       0.0000 |       0.0000 |       0.0000 |       0.0000 |       0.0000 |       0.0000 |       0.0000 |       0.0000 |       0.0000 |       0.0000 |       0.0000 |       0.0000 |       0.0000 |       0.0000 |       0.0000 |       0.0000 |       0.0000 |       0.0000 |       0.0000 |       0.0000 |       0.0000 |       0.0000 |       0.0000 |       0.0000 |       0.0000 |       0.0000 |       0.0000 |       0.0000 |       0.0000 |       0.0000 |
il1.wb_rate                                 0.0000 |       0.0000 |       0.0000 |       0.0000 |       0.0000 |       0.0000 |       0.0000 |       0.0000 |       0.0000 |       0.0000 |       0.0000 |       0.0000 |       0.0000 |       0.0000 |       0.0000 |       0.0000 |       0.0000 |       0.0000 |       0.0000 |       0.0000 |       0.0000 |       0.0000 |       0.0000 |       0.0000 |       0.0000 |       0.0000 |       0.0000 |       0.0000 |       0.0000 |       0.0000 |       0.0000 |       0.0000 |       0.0000 |       0.0000 |       0.0000 |       0.0000 |       0.0000 |       0.0000 |       0.0000 |       0.0000 |       0.0000 |       0.0000 |       0.0000 |       0.0000 |
il1.inv_rate                                0.0000 |       0.0000 |       0.0000 |       0.0000 |       0.0000 |       0.0000 |       0.0000 |       0.0000 |       0.0000 |       0.0000 |       0.0000 |       0.0000 |       0.0000 |       0.0000 |       0.0000 |       0.0000 |       0.0000 |       0.0000 |       0.0000 |       0.0000 |       0.0000 |       0.0000 |       0.0000 |       0.0000 |       0.0000 |       0.0000 |       0.0000 |       0.0000 |       0.0000 |       0.0000 |       0.0000 |       0.0000 |       0.0000 |       0.0000 |       0.0000 |       0.0000 |       0.0000 |       0.0000 |       0.0000 |       0.0000 |       0.0000 |       0.0000 |       0.0000 |       0.0000 |
dl1.accesses                                246143 |       246143 |       246143 |       246143 |       505933 |       505933 |       505933 |       505933 |      1118329 |      1118329 |      1118329 |      1118329 |      2303699 |      2303699 |      2303699 |      2303699 |      5047475 |      5047475 |      5047475 |      5047475 |     10381539 |     10381539 |     10381539 |     10381539 |     22541127 |     22541127 |     22541127 |     22541127 |     47810434 |     47810434 |     47810434 |     47810434 |    102730683 |    102730683 |    102730683 |    102730683 |    210075084 |    210075084 |    210075084 |    210075084 |    448615981 |    448615981 |    448615981 |    448615981 |
dl1.hits                                    218378 |       218378 |       239214 |       239214 |       456535 |       456535 |       491741 |       491741 |       999827 |       999827 |      1083732 |      1083732 |      2089022 |      2089022 |      2231900 |      2231900 |      4538013 |      4538013 |      4877755 |      4877755 |      9451211 |      9451211 |     10030258 |     10030258 |     20361743 |     20361743 |     21732916 |     21732916 |     43467956 |     43467956 |     46012544 |     46012544 |     92760541 |     92760541 |     98712006 |     98712006 |    191545278 |    191545278 |    201838616 |    201838616 |    406419622 |    406419622 |    430446779 |    430446779 |
dl1.misses                                   27765 |        27765 |         6929 |         6929 |        49398 |        49398 |        14192 |        14192 |       118502 |       118502 |        34597 |        34597 |       214677 |       214677 |        71799 |        71799 |       509462 |       509462 |       169720 |       169720 |       930328 |       930328 |       351281 |       351281 |      2179384 |      2179384 |       808211 |       808211 |      4342478 |      4342478 |      1797890 |      1797890 |      9970142 |      9970142 |      4018677 |      4018677 |     18529806 |     18529806 |      8236468 |      8236468 |     42196359 |     42196359 |     18169202 |     18169202 |
dl1.replacements                             27509 |        27509 |         6673 |         6673 |        49142 |        49142 |        13936 |        13936 |       118246 |       118246 |        34341 |        34341 |       214421 |       214421 |        71543 |        71543 |       509206 |       509206 |       169464 |       169464 |       930072 |       930072 |       351025 |       351025 |      2179128 |      2179128 |       807955 |       807955 |      4342222 |      4342222 |      1797634 |      1797634 |      9969886 |      9969886 |      4018421 |      4018421 |     18529550 |     18529550 |      8236212 |      8236212 |     42196103 |     42196103 |     18168946 |     18168946 |
dl1.writebacks                               14927 |        14927 |         5040 |         5040 |        26870 |        26870 |         9772 |         9772 |        63311 |        63311 |        23392 |        23392 |       115573 |       115573 |        46400 |        46400 |       270100 |       270100 |       109039 |       109039 |       496459 |       496459 |       217355 |       217355 |      1148055 |      1148055 |       500491 |       500491 |      2288203 |      2288203 |      1065771 |      1065771 |      5200427 |      5200427 |      2394630 |      2394630 |      9705374 |      9705374 |      4785215 |      4785215 |     21904251 |     21904251 |     10626612 |     10626612 |
dl1.invalidations                                0 |            0 |            0 |            0 |            0 |            0 |            0 |            0 |            0 |            0 |            0 |            0 |            0 |            0 |            0 |            0 |            0 |            0 |            0 |            0 |            0 |            0 |            0 |            0 |            0 |            0 |            0 |            0 |            0 |            0 |            0 |            0 |            0 |            0 |            0 |            0 |            0 |            0 |            0 |            0 |            0 |            0 |            0 |            0 |
dl1.miss_rate                               0.1128 |       0.1128 |       0.0282 |       0.0282 |       0.0976 |       0.0976 |       0.0281 |       0.0281 |       0.1060 |       0.1060 |       0.0309 |       0.0309 |       0.0932 |       0.0932 |       0.0312 |       0.0312 |       0.1009 |       0.1009 |       0.0336 |       0.0336 |       0.0896 |       0.0896 |       0.0338 |       0.0338 |       0.0967 |       0.0967 |       0.0359 |       0.0359 |       0.0908 |       0.0908 |       0.0376 |       0.0376 |       0.0971 |       0.0971 |       0.0391 |       0.0391 |       0.0882 |       0.0882 |       0.0392 |       0.0392 |       0.0941 |       0.0941 |       0.0405 |       0.0405 |
dl1.repl_rate                               0.1118 |       0.1118 |       0.0271 |       0.0271 |       0.0971 |       0.0971 |       0.0275 |       0.0275 |       0.1057 |       0.1057 |       0.0307 |       0.0307 |       0.0931 |       0.0931 |       0.0311 |       0.0311 |       0.1009 |       0.1009 |       0.0336 |       0.0336 |       0.0896 |       0.0896 |       0.0338 |       0.0338 |       0.0967 |       0.0967 |       0.0358 |       0.0358 |       0.0908 |       0.0908 |       0.0376 |       0.0376 |       0.0970 |       0.0970 |       0.0391 |       0.0391 |       0.0882 |       0.0882 |       0.0392 |       0.0392 |       0.0941 |       0.0941 |       0.0405 |       0.0405 |
dl1.wb_rate                                 0.0606 |       0.0606 |       0.0205 |       0.0205 |       0.0531 |       0.0531 |       0.0193 |       0.0193 |       0.0566 |       0.0566 |       0.0209 |       0.0209 |       0.0502 |       0.0502 |       0.0201 |       0.0201 |       0.0535 |       0.0535 |       0.0216 |       0.0216 |       0.0478 |       0.0478 |       0.0209 |       0.0209 |       0.0509 |       0.0509 |       0.0222 |       0.0222 |       0.0479 |       0.0479 |       0.0223 |       0.0223 |       0.0506 |       0.0506 |       0.0233 |       0.0233 |       0.0462 |       0.0462 |       0.0228 |       0.0228 |       0.0488 |       0.0488 |       0.0237 |       0.0237 |
dl1.inv_rate                                0.0000 |       0.0000 |       0.0000 |       0.0000 |       0.0000 |       0.0000 |       0.0000 |       0.0000 |       0.0000 |       0.0000 |       0.0000 |       0.0000 |       0.0000 |       0.0000 |       0.0000 |       0.0000 |       0.0000 |       0.0000 |       0.0000 |       0.0000 |       0.0000 |       0.0000 |       0.0000 |       0.0000 |       0.0000 |       0.0000 |       0.0000 |       0.0000 |       0.0000 |       0.0000 |       0.0000 |       0.0000 |       0.0000 |       0.0000 |       0.0000 |       0.0000 |       0.0000 |       0.0000 |       0.0000 |       0.0000 |       0.0000 |       0.0000 |       0.0000 |       0.0000 |
dl2.accesses                                 43362 |        43362 |        12544 |        12544 |        76959 |        76959 |        24563 |        24563 |       182487 |       182487 |        58563 |        58563 |       330941 |       330941 |       118798 |       118798 |       780237 |       780237 |       279338 |       279338 |      1427480 |      1427480 |       569236 |       569236 |      3328112 |      3328112 |      1309279 |      1309279 |      6632961 |      6632961 |      2864335 |      2864335 |     15174375 |     15174375 |      6413963 |      6413963 |     28242104 |     28242104 |     13022357 |     13022357 |     64113680 |     64113680 |     28796470 |     28796470 |
dl2.hits                                     41385 |        41385 |        10585 |        10585 |        73938 |        73938 |        21561 |        21561 |       177439 |       177439 |        53533 |        53533 |       321776 |       321776 |       109651 |       109651 |       762896 |       762896 |       262015 |       262015 |      1393738 |      1393738 |       535513 |       535513 |      3261607 |      3261501 |      1242807 |      1206122 |      6390830 |      6225412 |      2697055 |      2342598 |     14199440 |     13992313 |      5232501 |      5110991 |     25376947 |     25354644 |     10136097 |      9894557 |     57291881 |     57290658 |     21976501 |     21493708 |
dl2.misses                                    1977 |         1977 |         1959 |         1959 |         3021 |         3021 |         3002 |         3002 |         5048 |         5048 |         5030 |         5030 |         9165 |         9165 |         9147 |         9147 |        17341 |        17341 |        17323 |        17323 |        33742 |        33742 |        33723 |        33723 |        66505 |        66611 |        66472 |       103157 |       242131 |       407549 |       167280 |       521737 |       974935 |      1182062 |      1181462 |      1302972 |      2865157 |      2887460 |      2886260 |      3127800 |      6821799 |      6823022 |      6819969 |      7302762 |
dl2.replacements                               165 |          165 |            0 |            0 |          184 |          184 |            0 |            0 |          166 |          166 |            0 |            0 |          184 |          184 |            0 |            0 |          168 |          168 |            0 |            0 |          184 |          184 |            0 |            0 |          192 |         1075 |            0 |        37621 |       142414 |       342013 |        36208 |       456201 |       843863 |      1116526 |      1050390 |      1237436 |      2734085 |      2821924 |      2755188 |      3062264 |      6690727 |      6757486 |      6688897 |      7237226 |
dl2.writebacks                                 114 |          114 |            0 |            0 |          131 |          131 |            0 |            0 |          114 |          114 |            0 |            0 |          131 |          131 |            0 |            0 |          115 |          115 |            0 |            0 |          131 |          131 |            0 |            0 |          136 |          698 |            0 |        37196 |        98603 |       264984 |        35740 |       357159 |       723099 |       755289 |       722136 |       876185 |      1804716 |      1804863 |      1771483 |      2045449 |      4165977 |      4166348 |      4132322 |      4647194 |
dl2.invalidations                                0 |            0 |            0 |            0 |            0 |            0 |            0 |            0 |            0 |            0 |            0 |            0 |            0 |            0 |            0 |            0 |            0 |            0 |            0 |            0 |            0 |            0 |            0 |            0 |            0 |            0 |            0 |            0 |            0 |            0 |            0 |            0 |            0 |            0 |            0 |            0 |            0 |            0 |            0 |            0 |            0 |            0 |            0 |            0 |
dl2.miss_rate                               0.0456 |       0.0456 |       0.1562 |       0.1562 |       0.0393 |       0.0393 |       0.1222 |       0.1222 |       0.0277 |       0.0277 |       0.0859 |       0.0859 |       0.0277 |       0.0277 |       0.0770 |       0.0770 |       0.0222 |       0.0222 |       0.0620 |       0.0620 |       0.0236 |       0.0236 |       0.0592 |       0.0592 |       0.0200 |       0.0200 |       0.0508 |       0.0788 |       0.0365 |       0.0614 |       0.0584 |       0.1821 |       0.0642 |       0.0779 |       0.1842 |       0.2031 |       0.1014 |       0.1022 |       0.2216 |       0.2402 |       0.1064 |       0.1064 |       0.2368 |       0.2536 |
dl2.repl_rate                               0.0038 |       0.0038 |       0.0000 |       0.0000 |       0.0024 |       0.0024 |       0.0000 |       0.0000 |       0.0009 |       0.0009 |       0.0000 |       0.0000 |       0.0006 |       0.0006 |       0.0000 |       0.0000 |       0.0002 |       0.0002 |       0.0000 |       0.0000 |       0.0001 |       0.0001 |       0.0000 |       0.0000 |       0.0001 |       0.0003 |       0.0000 |       0.0287 |       0.0215 |       0.0516 |       0.0126 |       0.1593 |       0.0556 |       0.0736 |       0.1638 |       0.1929 |       0.0968 |       0.0999 |       0.2116 |       0.2352 |       0.1044 |       0.1054 |       0.2323 |       0.2513 |
dl2.wb_rate                                 0.0026 |       0.0026 |       0.0000 |       0.0000 |       0.0017 |       0.0017 |       0.0000 |       0.0000 |       0.0006 |       0.0006 |       0.0000 |       0.0000 |       0.0004 |       0.0004 |       0.0000 |       0.0000 |       0.0001 |       0.0001 |       0.0000 |       0.0000 |       0.0001 |       0.0001 |       0.0000 |       0.0000 |       0.0000 |       0.0002 |       0.0000 |       0.0284 |       0.0149 |       0.0399 |       0.0125 |       0.1247 |       0.0477 |       0.0498 |       0.1126 |       0.1366 |       0.0639 |       0.0639 |       0.1360 |       0.1571 |       0.0650 |       0.0650 |       0.1435 |       0.1614 |
dl2.inv_rate                                0.0000 |       0.0000 |       0.0000 |       0.0000 |       0.0000 |       0.0000 |       0.0000 |       0.0000 |       0.0000 |       0.0000 |       0.0000 |       0.0000 |       0.0000 |       0.0000 |       0.0000 |       0.0000 |       0.0000 |       0.0000 |       0.0000 |       0.0000 |       0.0000 |       0.0000 |       0.0000 |       0.0000 |       0.0000 |       0.0000 |       0.0000 |       0.0000 |       0.0000 |       0.0000 |       0.0000 |       0.0000 |       0.0000 |       0.0000 |       0.0000 |       0.0000 |       0.0000 |       0.0000 |       0.0000 |       0.0000 |       0.0000 |       0.0000 |       0.0000 |       0.0000 |
itlb.accesses                               863382 |       863382 |       863382 |       863382 |      1755608 |      1755608 |      1755608 |      1755608 |      3964860 |      3964860 |      3964860 |      3964860 |      8069679 |      8069679 |      8069679 |      8069679 |     17984534 |     17984534 |     17984534 |     17984534 |     36582817 |     36582817 |     36582817 |     36582817 |     80591391 |     80591391 |     80591391 |     80591391 |    168455125 |    168455125 |    168455125 |    168455125 |    366606085 |    366606085 |    366606085 |    366606085 |    742964077 |    742964077 |    742964077 |    742964077 |   1604691721 |   1604691721 |   1604691721 |   1604691721 |
itlb.hits                                   863370 |       863370 |       863370 |       863370 |      1755596 |      1755596 |      1755596 |      1755596 |      3964848 |      3964848 |      3964848 |      3964848 |      8069667 |      8069667 |      8069667 |      8069667 |     17984522 |     17984522 |     17984522 |     17984522 |     36582805 |     36582805 |     36582805 |     36582805 |     80591379 |     80591379 |     80591379 |     80591379 |    168455113 |    168455113 |    168455113 |    168455113 |    366606073 |    366606073 |    366606073 |    366606073 |    742964065 |    742964065 |    742964065 |    742964065 |   1604691709 |   1604691709 |   1604691709 |   1604691709 |
itlb.misses                                     12 |           12 |           12 |           12 |           12 |           12 |           12 |           12 |           12 |           12 |           12 |           12 |           12 |           12 |           12 |           12 |           12 |           12 |           12 |           12 |           12 |           12 |           12 |           12 |           12 |           12 |           12 |           12 |           12 |           12 |           12 |           12 |           12 |           12 |           12 |           12 |           12 |           12 |           12 |           12 |           12 |           12 |           12 |           12 |
itlb.replacements                                0 |            0 |            0 |            0 |            0 |            0 |            0 |            0 |            0 |            0 |            0 |            0 |            0 |            0 |            0 |            0 |            0 |            0 |            0 |            0 |            0 |            0 |            0 |            0 |            0 |            0 |            0 |            0 |            0 |            0 |            0 |            0 |            0 |            0 |            0 |            0 |            0 |            0 |            0 |            0 |            0 |            0 |            0 |            0 |
itlb.writebacks                                  0 |            0 |            0 |            0 |            0 |            0 |            0 |            0 |            0 |            0 |            0 |            0 |            0 |            0 |            0 |            0 |            0 |            0 |            0 |            0 |            0 |            0 |            0 |            0 |            0 |            0 |            0 |            0 |            0 |            0 |            0 |            0 |            0 |            0 |            0 |            0 |            0 |            0 |            0 |            0 |            0 |            0 |            0 |            0 |
itlb.invalidations                               0 |            0 |            0 |            0 |            0 |            0 |            0 |            0 |            0 |            0 |            0 |            0 |            0 |            0 |            0 |            0 |            0 |            0 |            0 |            0 |            0 |            0 |            0 |            0 |            0 |            0 |            0 |            0 |            0 |            0 |            0 |            0 |            0 |            0 |            0 |            0 |            0 |            0 |            0 |            0 |            0 |            0 |            0 |            0 |
itlb.miss_rate                              0.0000 |       0.0000 |       0.0000 |       0.0000 |       0.0000 |       0.0000 |       0.0000 |       0.0000 |       0.0000 |       0.0000 |       0.0000 |       0.0000 |       0.0000 |       0.0000 |       0.0000 |       0.0000 |       0.0000 |       0.0000 |       0.0000 |       0.0000 |       0.0000 |       0.0000 |       0.0000 |       0.0000 |       0.0000 |       0.0000 |       0.0000 |       0.0000 |       0.0000 |       0.0000 |       0.0000 |       0.0000 |       0.0000 |       0.0000 |       0.0000 |       0.0000 |       0.0000 |       0.0000 |       0.0000 |       0.0000 |       0.0000 |       0.0000 |       0.0000 |       0.0000 |
itlb.repl_rate                              0.0000 |       0.0000 |       0.0000 |       0.0000 |       0.0000 |       0.0000 |       0.0000 |       0.0000 |       0.0000 |       0.0000 |       0.0000 |       0.0000 |       0.0000 |       0.0000 |       0.0000 |       0.0000 |       0.0000 |       0.0000 |       0.0000 |       0.0000 |       0.0000 |       0.0000 |       0.0000 |       0.0000 |       0.0000 |       0.0000 |       0.0000 |       0.0000 |       0.0000 |       0.0000 |       0.0000 |       0.0000 |       0.0000 |       0.0000 |       0.0000 |       0.0000 |       0.0000 |       0.0000 |       0.0000 |       0.0000 |       0.0000 |       0.0000 |       0.0000 |       0.0000 |
itlb.wb_rate                                0.0000 |       0.0000 |       0.0000 |       0.0000 |       0.0000 |       0.0000 |       0.0000 |       0.0000 |       0.0000 |       0.0000 |       0.0000 |       0.0000 |       0.0000 |       0.0000 |       0.0000 |       0.0000 |       0.0000 |       0.0000 |       0.0000 |       0.0000 |       0.0000 |       0.0000 |       0.0000 |       0.0000 |       0.0000 |       0.0000 |       0.0000 |       0.0000 |       0.0000 |       0.0000 |       0.0000 |       0.0000 |       0.0000 |       0.0000 |       0.0000 |       0.0000 |       0.0000 |       0.0000 |       0.0000 |       0.0000 |       0.0000 |       0.0000 |       0.0000 |       0.0000 |
itlb.inv_rate                               0.0000 |       0.0000 |       0.0000 |       0.0000 |       0.0000 |       0.0000 |       0.0000 |       0.0000 |       0.0000 |       0.0000 |       0.0000 |       0.0000 |       0.0000 |       0.0000 |       0.0000 |       0.0000 |       0.0000 |       0.0000 |       0.0000 |       0.0000 |       0.0000 |       0.0000 |       0.0000 |       0.0000 |       0.0000 |       0.0000 |       0.0000 |       0.0000 |       0.0000 |       0.0000 |       0.0000 |       0.0000 |       0.0000 |       0.0000 |       0.0000 |       0.0000 |       0.0000 |       0.0000 |       0.0000 |       0.0000 |       0.0000 |       0.0000 |       0.0000 |       0.0000 |
dtlb.accesses                               246143 |       246143 |       246143 |       246143 |       505933 |       505933 |       505933 |       505933 |      1118329 |      1118329 |      1118329 |      1118329 |      2303699 |      2303699 |      2303699 |      2303699 |      5047475 |      5047475 |      5047475 |      5047475 |     10381539 |     10381539 |     10381539 |     10381539 |     22541127 |     22541127 |     22541127 |     22541127 |     47810434 |     47810434 |     47810434 |     47810434 |    102730683 |    102730683 |    102730683 |    102730683 |    210075084 |    210075084 |    210075084 |    210075084 |    448615981 |    448615981 |    448615981 |    448615981 |
dtlb.hits                                   246127 |       246127 |       246127 |       246127 |       505909 |       505909 |       505909 |       505909 |      1118289 |      1118289 |      1118289 |      1118289 |      2303627 |      2303627 |      2303627 |      2303627 |      5047290 |      5047290 |      5047290 |      5047290 |     10379113 |     10379113 |     10379113 |     10379113 |     22535713 |     22535713 |     22535713 |     22535713 |     47797682 |     47797682 |     47797682 |     47797682 |    102703143 |    102703143 |    102703143 |    102703143 |    210015926 |    210015926 |    210015926 |    210015926 |    448489467 |    448489467 |    448489467 |    448489467 |
dtlb.misses                                     16 |           16 |           16 |           16 |           24 |           24 |           24 |           24 |           40 |           40 |           40 |           40 |           72 |           72 |           72 |           72 |          185 |          185 |          185 |          185 |         2426 |         2426 |         2426 |         2426 |         5414 |         5414 |         5414 |         5414 |        12752 |        12752 |        12752 |        12752 |        27540 |        27540 |        27540 |        27540 |        59158 |        59158 |        59158 |        59158 |       126514 |       126514 |       126514 |       126514 |
dtlb.replacements                                0 |            0 |            0 |            0 |            0 |            0 |            0 |            0 |            0 |            0 |            0 |            0 |            0 |            0 |            0 |            0 |           57 |           57 |           57 |           57 |         2298 |         2298 |         2298 |         2298 |         5286 |         5286 |         5286 |         5286 |        12624 |        12624 |        12624 |        12624 |        27412 |        27412 |        27412 |        27412 |        59030 |        59030 |        59030 |        59030 |       126386 |       126386 |       126386 |       126386 |
dtlb.writebacks                                  0 |            0 |            0 |            0 |            0 |            0 |            0 |            0 |            0 |            0 |            0 |            0 |            0 |            0 |            0 |            0 |           37 |           37 |           37 |           37 |         1333 |         1333 |         1333 |         1333 |         3029 |         3029 |         3029 |         3029 |         7088 |         7088 |         7088 |         7088 |        15254 |        15254 |        15254 |        15254 |        32613 |        32613 |        32613 |        32613 |        69382 |        69382 |        69382 |        69382 |
dtlb.invalidations                               0 |            0 |            0 |            0 |            0 |            0 |            0 |            0 |            0 |            0 |            0 |            0 |            0 |            0 |            0 |            0 |            0 |            0 |            0 |            0 |            0 |            0 |            0 |            0 |            0 |            0 |            0 |            0 |            0 |            0 |            0 |            0 |            0 |            0 |            0 |            0 |            0 |            0 |            0 |            0 |            0 |            0 |            0 |            0 |
dtlb.miss_rate                              0.0001 |       0.0001 |       0.0001 |       0.0001 |       0.0000 |       0.0000 |       0.0000 |       0.0000 |       0.0000 |       0.0000 |       0.0000 |       0.0000 |       0.0000 |       0.0000 |       0.0000 |       0.0000 |       0.0000 |       0.0000 |       0.0000 |       0.0000 |       0.0002 |       0.0002 |       0.0002 |       0.0002 |       0.0002 |       0.0002 |       0.0002 |       0.0002 |       0.0003 |       0.0003 |       0.0003 |       0.0003 |       0.0003 |       0.0003 |       0.0003 |       0.0003 |       0.0003 |       0.0003 |       0.0003 |       0.0003 |       0.0003 |       0.0003 |       0.0003 |       0.0003 |
dtlb.repl_rate                              0.0000 |       0.0000 |       0.0000 |       0.0000 |       0.0000 |       0.0000 |       0.0000 |       0.0000 |       0.0000 |       0.0000 |       0.0000 |       0.0000 |       0.0000 |       0.0000 |       0.0000 |       0.0000 |       0.0000 |       0.0000 |       0.0000 |       0.0000 |       0.0002 |       0.0002 |       0.0002 |       0.0002 |       0.0002 |       0.0002 |       0.0002 |       0.0002 |       0.0003 |       0.0003 |       0.0003 |       0.0003 |       0.0003 |       0.0003 |       0.0003 |       0.0003 |       0.0003 |       0.0003 |       0.0003 |       0.0003 |       0.0003 |       0.0003 |       0.0003 |       0.0003 |
dtlb.wb_rate                                0.0000 |       0.0000 |       0.0000 |       0.0000 |       0.0000 |       0.0000 |       0.0000 |       0.0000 |       0.0000 |       0.0000 |       0.0000 |       0.0000 |       0.0000 |       0.0000 |       0.0000 |       0.0000 |       0.0000 |       0.0000 |       0.0000 |       0.0000 |       0.0001 |       0.0001 |       0.0001 |       0.0001 |       0.0001 |       0.0001 |       0.0001 |       0.0001 |       0.0001 |       0.0001 |       0.0001 |       0.0001 |       0.0001 |       0.0001 |       0.0001 |       0.0001 |       0.0002 |       0.0002 |       0.0002 |       0.0002 |       0.0002 |       0.0002 |       0.0002 |       0.0002 |
dtlb.inv_rate                               0.0000 |       0.0000 |       0.0000 |       0.0000 |       0.0000 |       0.0000 |       0.0000 |       0.0000 |       0.0000 |       0.0000 |       0.0000 |       0.0000 |       0.0000 |       0.0000 |       0.0000 |       0.0000 |       0.0000 |       0.0000 |       0.0000 |       0.0000 |       0.0000 |       0.0000 |       0.0000 |       0.0000 |       0.0000 |       0.0000 |       0.0000 |       0.0000 |       0.0000 |       0.0000 |       0.0000 |       0.0000 |       0.0000 |       0.0000 |       0.0000 |       0.0000 |       0.0000 |       0.0000 |       0.0000 |       0.0000 |       0.0000 |       0.0000 |       0.0000 |       0.0000 |
ld_text_base                            0x00400000 |   0x00400000 |   0x00400000 |   0x00400000 |   0x00400000 |   0x00400000 |   0x00400000 |   0x00400000 |   0x00400000 |   0x00400000 |   0x00400000 |   0x00400000 |   0x00400000 |   0x00400000 |   0x00400000 |   0x00400000 |   0x00400000 |   0x00400000 |   0x00400000 |   0x00400000 |   0x00400000 |   0x00400000 |   0x00400000 |   0x00400000 |   0x00400000 |   0x00400000 |   0x00400000 |   0x00400000 |   0x00400000 |   0x00400000 |   0x00400000 |   0x00400000 |   0x00400000 |   0x00400000 |   0x00400000 |   0x00400000 |   0x00400000 |   0x00400000 |   0x00400000 |   0x00400000 |   0x00400000 |   0x00400000 |   0x00400000 |   0x00400000 |
ld_text_size                                 87648 |        87648 |        87648 |        87648 |        87680 |        87680 |        87680 |        87680 |        87696 |        87696 |        87696 |        87696 |        87712 |        87712 |        87712 |        87712 |        87712 |        87712 |        87712 |        87712 |        87712 |        87712 |        87712 |        87712 |        87712 |        87712 |        87712 |        87712 |        87712 |        87712 |        87712 |        87712 |        87712 |        87712 |        87712 |        87712 |        87712 |        87712 |        87712 |        87712 |        87712 |        87712 |        87712 |        87712 |
ld_data_base                            0x10000000 |   0x10000000 |   0x10000000 |   0x10000000 |   0x10000000 |   0x10000000 |   0x10000000 |   0x10000000 |   0x10000000 |   0x10000000 |   0x10000000 |   0x10000000 |   0x10000000 |   0x10000000 |   0x10000000 |   0x10000000 |   0x10000000 |   0x10000000 |   0x10000000 |   0x10000000 |   0x10000000 |   0x10000000 |   0x10000000 |   0x10000000 |   0x10000000 |   0x10000000 |   0x10000000 |   0x10000000 |   0x10000000 |   0x10000000 |   0x10000000 |   0x10000000 |   0x10000000 |   0x10000000 |   0x10000000 |   0x10000000 |   0x10000000 |   0x10000000 |   0x10000000 |   0x10000000 |   0x10000000 |   0x10000000 |   0x10000000 |   0x10000000 |
ld_data_size                                  8192 |         8192 |         8192 |         8192 |         8192 |         8192 |         8192 |         8192 |         8192 |         8192 |         8192 |         8192 |         8192 |         8192 |         8192 |         8192 |         8192 |         8192 |         8192 |         8192 |         8192 |         8192 |         8192 |         8192 |         8192 |         8192 |         8192 |         8192 |         8192 |         8192 |         8192 |         8192 |         8192 |         8192 |         8192 |         8192 |         8192 |         8192 |         8192 |         8192 |         8192 |         8192 |         8192 |         8192 |
ld_stack_base                           0x7fffc000 |   0x7fffc000 |   0x7fffc000 |   0x7fffc000 |   0x7fffc000 |   0x7fffc000 |   0x7fffc000 |   0x7fffc000 |   0x7fffc000 |   0x7fffc000 |   0x7fffc000 |   0x7fffc000 |   0x7fffc000 |   0x7fffc000 |   0x7fffc000 |   0x7fffc000 |   0x7fffc000 |   0x7fffc000 |   0x7fffc000 |   0x7fffc000 |   0x7fffc000 |   0x7fffc000 |   0x7fffc000 |   0x7fffc000 |   0x7fffc000 |   0x7fffc000 |   0x7fffc000 |   0x7fffc000 |   0x7fffc000 |   0x7fffc000 |   0x7fffc000 |   0x7fffc000 |   0x7fffc000 |   0x7fffc000 |   0x7fffc000 |   0x7fffc000 |   0x7fffc000 |   0x7fffc000 |   0x7fffc000 |   0x7fffc000 |   0x7fffc000 |   0x7fffc000 |   0x7fffc000 |   0x7fffc000 |
ld_stack_size                                16384 |        16384 |        16384 |        16384 |        16384 |        16384 |        16384 |        16384 |        16384 |        16384 |        16384 |        16384 |        16384 |        16384 |        16384 |        16384 |        16384 |        16384 |        16384 |        16384 |        16384 |        16384 |        16384 |        16384 |        16384 |        16384 |        16384 |        16384 |        16384 |        16384 |        16384 |        16384 |        16384 |        16384 |        16384 |        16384 |        16384 |        16384 |        16384 |        16384 |        16384 |        16384 |        16384 |        16384 |
ld_prog_entry                           0x00400140 |   0x00400140 |   0x00400140 |   0x00400140 |   0x00400140 |   0x00400140 |   0x00400140 |   0x00400140 |   0x00400140 |   0x00400140 |   0x00400140 |   0x00400140 |   0x00400140 |   0x00400140 |   0x00400140 |   0x00400140 |   0x00400140 |   0x00400140 |   0x00400140 |   0x00400140 |   0x00400140 |   0x00400140 |   0x00400140 |   0x00400140 |   0x00400140 |   0x00400140 |   0x00400140 |   0x00400140 |   0x00400140 |   0x00400140 |   0x00400140 |   0x00400140 |   0x00400140 |   0x00400140 |   0x00400140 |   0x00400140 |   0x00400140 |   0x00400140 |   0x00400140 |   0x00400140 |   0x00400140 |   0x00400140 |   0x00400140 |   0x00400140 |
ld_environ_base                         0x7fff8000 |   0x7fff8000 |   0x7fff8000 |   0x7fff8000 |   0x7fff8000 |   0x7fff8000 |   0x7fff8000 |   0x7fff8000 |   0x7fff8000 |   0x7fff8000 |   0x7fff8000 |   0x7fff8000 |   0x7fff8000 |   0x7fff8000 |   0x7fff8000 |   0x7fff8000 |   0x7fff8000 |   0x7fff8000 |   0x7fff8000 |   0x7fff8000 |   0x7fff8000 |   0x7fff8000 |   0x7fff8000 |   0x7fff8000 |   0x7fff8000 |   0x7fff8000 |   0x7fff8000 |   0x7fff8000 |   0x7fff8000 |   0x7fff8000 |   0x7fff8000 |   0x7fff8000 |   0x7fff8000 |   0x7fff8000 |   0x7fff8000 |   0x7fff8000 |   0x7fff8000 |   0x7fff8000 |   0x7fff8000 |   0x7fff8000 |   0x7fff8000 |   0x7fff8000 |   0x7fff8000 |   0x7fff8000 |
ld_target_big_endian                             0 |            0 |            0 |            0 |            0 |            0 |            0 |            0 |            0 |            0 |            0 |            0 |            0 |            0 |            0 |            0 |            0 |            0 |            0 |            0 |            0 |            0 |            0 |            0 |            0 |            0 |            0 |            0 |            0 |            0 |            0 |            0 |            0 |            0 |            0 |            0 |            0 |            0 |            0 |            0 |            0 |            0 |            0 |            0 |
mem.page_count                                  38 |           38 |           38 |           38 |           46 |           46 |           46 |           46 |           62 |           62 |           62 |           62 |           94 |           94 |           94 |           94 |          158 |          158 |          158 |          158 |          286 |          286 |          286 |          286 |          542 |          542 |          542 |          542 |         1060 |         1060 |         1060 |         1060 |         2084 |         2084 |         2084 |         2084 |         4138 |         4138 |         4138 |         4138 |         8246 |         8246 |         8246 |         8246 |
mem.page_mem                                  152k |         152k |         152k |         152k |         184k |         184k |         184k |         184k |         248k |         248k |         248k |         248k |         376k |         376k |         376k |         376k |         632k |         632k |         632k |         632k |        1144k |        1144k |        1144k |        1144k |        2168k |        2168k |        2168k |        2168k |        4240k |        4240k |        4240k |        4240k |        8336k |        8336k |        8336k |        8336k |       16552k |       16552k |       16552k |       16552k |       32984k |       32984k |       32984k |       32984k |
mem.ptab_misses                                 38 |           38 |           38 |           38 |           46 |           46 |           46 |           46 |           62 |           62 |           62 |           62 |           94 |           94 |           94 |           94 |          158 |          158 |          158 |          158 |          286 |          286 |          286 |          286 |          542 |          542 |          542 |          542 |         1078 |         1078 |         1078 |         1078 |        99908 |        99908 |        99908 |        99908 |       103234 |       103234 |       103234 |       103234 |       115200 |       115200 |       115200 |       115200 |
mem.ptab_accesses                          4486326 |      4486326 |      4486326 |      4486326 |      8575002 |      8575002 |      8575002 |      8575002 |     18636898 |     18636898 |     18636898 |     18636898 |     37427010 |     37427010 |     37427010 |     37427010 |     82573982 |     82573982 |     82573982 |     82573982 |    167635242 |    167635242 |    167635242 |    167635242 |    367988714 |    367988714 |    367988714 |    367988714 |    769982264 |    769982264 |    769982264 |    769982264 |   1672426602 |   1672426602 |   1672426602 |   1672426602 |   3392547372 |   3392547372 |   3392547372 |   3392547372 |   7316539742 |   7316539742 |   7316539742 |   7316539742 |
mem.ptab_miss_rate                          0.0000 |       0.0000 |       0.0000 |       0.0000 |       0.0000 |       0.0000 |       0.0000 |       0.0000 |       0.0000 |       0.0000 |       0.0000 |       0.0000 |       0.0000 |       0.0000 |       0.0000 |       0.0000 |       0.0000 |       0.0000 |       0.0000 |       0.0000 |       0.0000 |       0.0000 |       0.0000 |       0.0000 |       0.0000 |       0.0000 |       0.0000 |       0.0000 |       0.0000 |       0.0000 |       0.0000 |       0.0000 |       0.0001 |       0.0001 |       0.0001 |       0.0001 |       0.0000 |       0.0000 |       0.0000 |       0.0000 |       0.0000 |       0.0000 |       0.0000 |       0.0000 |
-------------------------------------------------------------------------------------------------
sim-bpred                                     4096 |         4096 |         4096 |         4096 |         4096 |         4096 |         4096 |         8192 |         8192 |         8192 |         8192 |         8192 |         8192 |         8192 |        16384 |        16384 |        16384 |        16384 |        16384 |        16384 |        16384 |        32768 |        32768 |        32768 |        32768 |        32768 |        32768 |        32768 |        65536 |        65536 |        65536 |        65536 |        65536 |        65536 |        65536 |       131072 |       131072 |       131072 |       131072 |       131072 |       131072 |       131072 |       262144 |       262144 |       262144 |       262144 |       262144 |       262144 |       262144 |       524288 |       524288 |       524288 |       524288 |       524288 |       524288 |       524288 |      1048576 |      1048576 |      1048576 |      1048576 |      1048576 |      1048576 |      1048576 |      2097152 |      2097152 |      2097152 |      2097152 |      2097152 |      2097152 |      2097152 |      4194304 |      4194304 |      4194304 |      4194304 |      4194304 |      4194304 |      4194304 |
-bpred bimod -bpred:bimod 512
-bpred bimod -bpred:bimod 1024
-bpred bimod -bpred:bimod 2048
-bpred 2lev -bpred:2lev 1 512 10 1
-bpred 2lev -bpred:2lev 1 1024 10 1
-bpred 2lev -bpred:2lev 1 2048 10 1
-bpred 2lev -bpred:2lev 1 4096 10 1
-------------------------------------------------------------------------------------------------
sim_num_insn                                863382 |       863382 |       863382 |       863382 |       863382 |       863382 |       863382 |      1755608 |      1755608 |      1755608 |      1755608 |      1755608 |      1755608 |      1755608 |      3964860 |      3964860 |      3964860 |      3964860 |      3964860 |      3964860 |      3964860 |      8069679 |      8069679 |      8069679 |      8069679 |      8069679 |      8069679 |      8069679 |     17984534 |     17984534 |     17984534 |     17984534 |     17984534 |     17984534 |     17984534 |     36582817 |     36582817 |     36582817 |     36582817 |     36582817 |     36582817 |     36582817 |     80591391 |     80591391 |     80591391 |     80591391 |     80591391 |     80591391 |     80591391 |    168455125 |    168455125 |    168455125 |    168455125 |    168455125 |    168455125 |    168455125 |    366606085 |    366606085 |    366606085 |    366606085 |    366606085 |    366606085 |    366606085 |    742964077 |    742964077 |    742964077 |    742964077 |    742964077 |    742964077 |    742964077 |   1604691721 |   1604691721 |   1604691721 |   1604691721 |   1604691721 |   1604691721 |   1604691721 |
sim_num_refs                                229677 |       229677 |       229677 |       229677 |       229677 |       229677 |       229677 |       473083 |       473083 |       473083 |       473083 |       473083 |       473083 |       473083 |      1052711 |      1052711 |      1052711 |      1052711 |      1052711 |      1052711 |      1052711 |      2172545 |      2172545 |      2172545 |      2172545 |      2172545 |      2172545 |      2172545 |      4785249 |      4785249 |      4785249 |      4785249 |      4785249 |      4785249 |      4785249 |      9857169 |      9857169 |      9857169 |      9857169 |      9857169 |      9857169 |      9857169 |     21492469 |     21492469 |     21492469 |     21492469 |     21492469 |     21492469 |     21492469 |     45713200 |     45713200 |     45713200 |     45713200 |     45713200 |     45713200 |     45713200 |     98536297 |     98536297 |     98536297 |     98536297 |     98536297 |     98536297 |     98536297 |    201686394 |    201686394 |    201686394 |    201686394 |    201686394 |    201686394 |    201686394 |    431838683 |    431838683 |    431838683 |    431838683 |    431838683 |    431838683 |    431838683 |
sim_elapsed_time                                 1 |            1 |            1 |            1 |            1 |            1 |            1 |            1 |            1 |            1 |            1 |            1 |            1 |            1 |            1 |            1 |            1 |            1 |            1 |            1 |            1 |            1 |            1 |            1 |            1 |            1 |            1 |            1 |            2 |            3 |            2 |            2 |            2 |            2 |            2 |            4 |            4 |            4 |            4 |            4 |            4 |            5 |            9 |            9 |           10 |            9 |            9 |           10 |            9 |           20 |           19 |           22 |           20 |           22 |           21 |           21 |           41 |           41 |           41 |           42 |           43 |           42 |           42 |           85 |           86 |           85 |           87 |           86 |           87 |           86 |          183 |          183 |          183 |          185 |          186 |          185 |          185 |
sim_inst_rate                          863382.0000 |  863382.0000 |  863382.0000 |  863382.0000 |  863382.0000 |  863382.0000 |  863382.0000 | 1755608.0000 | 1755608.0000 | 1755608.0000 | 1755608.0000 | 1755608.0000 | 1755608.0000 | 1755608.0000 | 3964860.0000 | 3964860.0000 | 3964860.0000 | 3964860.0000 | 3964860.0000 | 3964860.0000 | 3964860.0000 | 8069679.0000 | 8069679.0000 | 8069679.0000 | 8069679.0000 | 8069679.0000 | 8069679.0000 | 8069679.0000 | 8992267.0000 | 5994844.6667 | 8992267.0000 | 8992267.0000 | 8992267.0000 | 8992267.0000 | 8992267.0000 | 9145704.2500 | 9145704.2500 | 9145704.2500 | 9145704.2500 | 9145704.2500 | 9145704.2500 | 7316563.4000 | 8954599.0000 | 8954599.0000 | 8059139.1000 | 8954599.0000 | 8954599.0000 | 8059139.1000 | 8954599.0000 | 8422756.2500 | 8866059.2105 | 7657051.1364 | 8422756.2500 | 7657051.1364 | 8021672.6190 | 8021672.6190 | 8941611.8293 | 8941611.8293 | 8941611.8293 | 8728716.3095 | 8525722.9070 | 8728716.3095 | 8728716.3095 | 8740753.8471 | 8639117.1744 | 8740753.8471 | 8539816.9770 | 8639117.1744 | 8539816.9770 | 8639117.1744 | 8768807.2186 | 8768807.2186 | 8768807.2186 | 8674009.3027 | 8627374.8441 | 8674009.3027 | 8674009.3027 |
sim_num_branches                            113455 |       113455 |       113455 |       113455 |       113455 |       113455 |       113455 |       236676 |       236676 |       236676 |       236676 |       236676 |       236676 |       236676 |       515662 |       515662 |       515662 |       515662 |       515662 |       515662 |       515662 |      1073048 |      1073048 |      1073048 |      1073048 |      1073048 |      1073048 |      1073048 |      2319974 |      2319974 |      2319974 |      2319974 |      2319974 |      2319974 |      2319974 |      4813553 |      4813553 |      4813553 |      4813553 |      4813553 |      4813553 |      4813553 |     10330502 |     10330502 |     10330502 |     10330502 |     10330502 |     10330502 |     10330502 |     21941419 |     21941419 |     21941419 |     21941419 |     21941419 |     21941419 |     21941419 |     46692756 |     46692756 |     46692756 |     46692756 |     46692756 |     46692756 |     46692756 |     96165523 |     96165523 |     96165523 |     96165523 |     96165523 |     96165523 |     96165523 |    203560122 |    203560122 |    203560122 |    203560122 |    203560122 |    203560122 |    203560122 |
sim_IPB                                     7.6099 |       7.6099 |       7.6099 |       7.6099 |       7.6099 |       7.6099 |       7.6099 |       7.4178 |       7.4178 |       7.4178 |       7.4178 |       7.4178 |       7.4178 |       7.4178 |       7.6889 |       7.6889 |       7.6889 |       7.6889 |       7.6889 |       7.6889 |       7.6889 |       7.5203 |       7.5203 |       7.5203 |       7.5203 |       7.5203 |       7.5203 |       7.5203 |       7.7520 |       7.7520 |       7.7520 |       7.7520 |       7.7520 |       7.7520 |       7.7520 |       7.6000 |       7.6000 |       7.6000 |       7.6000 |       7.6000 |       7.6000 |       7.6000 |       7.8013 |       7.8013 |       7.8013 |       7.8013 |       7.8013 |       7.8013 |       7.8013 |       7.6775 |       7.6775 |       7.6775 |       7.6775 |       7.6775 |       7.6775 |       7.6775 |       7.8515 |       7.8515 |       7.8515 |       7.8515 |       7.8515 |       7.8515 |       7.8515 |       7.7259 |       7.7259 |       7.7259 |       7.7259 |       7.7259 |       7.7259 |       7.7259 |       7.8831 |       7.8831 |       7.8831 |       7.8831 |       7.8831 |       7.8831 |       7.8831 |
bpred_bimod.lookups                         113455 |       113455 |       113455 |xxxxxxxxxxxxx |xxxxxxxxxxxxx |xxxxxxxxxxxxx |xxxxxxxxxxxxx |       236676 |       236676 |       236676 |xxxxxxxxxxxxx |xxxxxxxxxxxxx |xxxxxxxxxxxxx |xxxxxxxxxxxxx |       515662 |       515662 |       515662 |xxxxxxxxxxxxx |xxxxxxxxxxxxx |xxxxxxxxxxxxx |xxxxxxxxxxxxx |      1073048 |      1073048 |      1073048 |xxxxxxxxxxxxx |xxxxxxxxxxxxx |xxxxxxxxxxxxx |xxxxxxxxxxxxx |      2319974 |      2319974 |      2319974 |xxxxxxxxxxxxx |xxxxxxxxxxxxx |xxxxxxxxxxxxx |xxxxxxxxxxxxx |      4813553 |      4813553 |      4813553 |xxxxxxxxxxxxx |xxxxxxxxxxxxx |xxxxxxxxxxxxx |xxxxxxxxxxxxx |     10330502 |     10330502 |     10330502 |xxxxxxxxxxxxx |xxxxxxxxxxxxx |xxxxxxxxxxxxx |xxxxxxxxxxxxx |     21941419 |     21941419 |     21941419 |xxxxxxxxxxxxx |xxxxxxxxxxxxx |xxxxxxxxxxxxx |xxxxxxxxxxxxx |     46692756 |     46692756 |     46692756 |xxxxxxxxxxxxx |xxxxxxxxxxxxx |xxxxxxxxxxxxx |xxxxxxxxxxxxx |     96165523 |     96165523 |     96165523 |xxxxxxxxxxxxx |xxxxxxxxxxxxx |xxxxxxxxxxxxx |xxxxxxxxxxxxx |    203560122 |    203560122 |    203560122 |
bpred_bimod.updates                         113455 |       113455 |       113455 |xxxxxxxxxxxxx |xxxxxxxxxxxxx |xxxxxxxxxxxxx |xxxxxxxxxxxxx |       236676 |       236676 |       236676 |xxxxxxxxxxxxx |xxxxxxxxxxxxx |xxxxxxxxxxxxx |xxxxxxxxxxxxx |       515662 |       515662 |       515662 |xxxxxxxxxxxxx |xxxxxxxxxxxxx |xxxxxxxxxxxxx |xxxxxxxxxxxxx |      1073048 |      1073048 |      1073048 |xxxxxxxxxxxxx |xxxxxxxxxxxxx |xxxxxxxxxxxxx |xxxxxxxxxxxxx |      2319974 |      2319974 |      2319974 |xxxxxxxxxxxxx |xxxxxxxxxxxxx |xxxxxxxxxxxxx |xxxxxxxxxxxxx |      4813553 |      4813553 |      4813553 |xxxxxxxxxxxxx |xxxxxxxxxxxxx |xxxxxxxxxxxxx |xxxxxxxxxxxxx |     10330502 |     10330502 |     10330502 |xxxxxxxxxxxxx |xxxxxxxxxxxxx |xxxxxxxxxxxxx |xxxxxxxxxxxxx |     21941419 |     21941419 |     21941419 |xxxxxxxxxxxxx |xxxxxxxxxxxxx |xxxxxxxxxxxxx |xxxxxxxxxxxxx |     46692756 |     46692756 |     46692756 |xxxxxxxxxxxxx |xxxxxxxxxxxxx |xxxxxxxxxxxxx |xxxxxxxxxxxxx |     96165523 |     96165523 |     96165523 |xxxxxxxxxxxxx |xxxxxxxxxxxxx |xxxxxxxxxxxxx |xxxxxxxxxxxxx |    203560122 |    203560122 |    203560122 |
bpred_bimod.addr_hits                        87798 |        87812 |        87815 |xxxxxxxxxxxxx |xxxxxxxxxxxxx |xxxxxxxxxxxxx |xxxxxxxxxxxxx |       184971 |       184975 |       184974 |xxxxxxxxxxxxx |xxxxxxxxxxxxx |xxxxxxxxxxxxx |xxxxxxxxxxxxx |       397367 |       397393 |       397395 |xxxxxxxxxxxxx |xxxxxxxxxxxxx |xxxxxxxxxxxxx |xxxxxxxxxxxxx |       834233 |       834251 |       834253 |xxxxxxxxxxxxx |xxxxxxxxxxxxx |xxxxxxxxxxxxx |xxxxxxxxxxxxx |      1783059 |      1783133 |      1783136 |xxxxxxxxxxxxx |xxxxxxxxxxxxx |xxxxxxxxxxxxx |xxxxxxxxxxxxx |      3728682 |      3728750 |      3728751 |xxxxxxxxxxxxx |xxxxxxxxxxxxx |xxxxxxxxxxxxx |xxxxxxxxxxxxx |      7919560 |      7919817 |      7919820 |xxxxxxxxxxxxx |xxxxxxxxxxxxx |xxxxxxxxxxxxx |xxxxxxxxxxxxx |     17077462 |     17077626 |     17077628 |xxxxxxxxxxxxx |xxxxxxxxxxxxx |xxxxxxxxxxxxx |xxxxxxxxxxxxx |     36000846 |     36001928 |     36001928 |xxxxxxxxxxxxx |xxxxxxxxxxxxx |xxxxxxxxxxxxx |xxxxxxxxxxxxx |     74604159 |     74604811 |     74604816 |xxxxxxxxxxxxx |xxxxxxxxxxxxx |xxxxxxxxxxxxx |xxxxxxxxxxxxx |    156579410 |    156583574 |    156583574 |
bpred_bimod.dir_hits                         87946 |        87962 |        87965 |xxxxxxxxxxxxx |xxxxxxxxxxxxx |xxxxxxxxxxxxx |xxxxxxxxxxxxx |       185124 |       185128 |       185128 |xxxxxxxxxxxxx |xxxxxxxxxxxxx |xxxxxxxxxxxxx |xxxxxxxxxxxxx |       397521 |       397543 |       397545 |xxxxxxxxxxxxx |xxxxxxxxxxxxx |xxxxxxxxxxxxx |xxxxxxxxxxxxx |       834385 |       834401 |       834405 |xxxxxxxxxxxxx |xxxxxxxxxxxxx |xxxxxxxxxxxxx |xxxxxxxxxxxxx |      1783207 |      1783282 |      1783288 |xxxxxxxxxxxxx |xxxxxxxxxxxxx |xxxxxxxxxxxxx |xxxxxxxxxxxxx |      3728837 |      3728903 |      3728905 |xxxxxxxxxxxxx |xxxxxxxxxxxxx |xxxxxxxxxxxxx |xxxxxxxxxxxxx |      7919706 |      7919963 |      7919968 |xxxxxxxxxxxxx |xxxxxxxxxxxxx |xxxxxxxxxxxxx |xxxxxxxxxxxxx |     17077638 |     17077799 |     17077802 |xxxxxxxxxxxxx |xxxxxxxxxxxxx |xxxxxxxxxxxxx |xxxxxxxxxxxxx |     36001020 |     36002102 |     36002102 |xxxxxxxxxxxxx |xxxxxxxxxxxxx |xxxxxxxxxxxxx |xxxxxxxxxxxxx |     74604336 |     74604985 |     74604991 |xxxxxxxxxxxxx |xxxxxxxxxxxxx |xxxxxxxxxxxxx |xxxxxxxxxxxxx |    156579584 |    156583748 |    156583748 |
bpred_bimod.misses                           25509 |        25493 |        25490 |xxxxxxxxxxxxx |xxxxxxxxxxxxx |xxxxxxxxxxxxx |xxxxxxxxxxxxx |        51552 |        51548 |        51548 |xxxxxxxxxxxxx |xxxxxxxxxxxxx |xxxxxxxxxxxxx |xxxxxxxxxxxxx |       118141 |       118119 |       118117 |xxxxxxxxxxxxx |xxxxxxxxxxxxx |xxxxxxxxxxxxx |xxxxxxxxxxxxx |       238663 |       238647 |       238643 |xxxxxxxxxxxxx |xxxxxxxxxxxxx |xxxxxxxxxxxxx |xxxxxxxxxxxxx |       536767 |       536692 |       536686 |xxxxxxxxxxxxx |xxxxxxxxxxxxx |xxxxxxxxxxxxx |xxxxxxxxxxxxx |      1084716 |      1084650 |      1084648 |xxxxxxxxxxxxx |xxxxxxxxxxxxx |xxxxxxxxxxxxx |xxxxxxxxxxxxx |      2410796 |      2410539 |      2410534 |xxxxxxxxxxxxx |xxxxxxxxxxxxx |xxxxxxxxxxxxx |xxxxxxxxxxxxx |      4863781 |      4863620 |      4863617 |xxxxxxxxxxxxx |xxxxxxxxxxxxx |xxxxxxxxxxxxx |xxxxxxxxxxxxx |     10691736 |     10690654 |     10690654 |xxxxxxxxxxxxx |xxxxxxxxxxxxx |xxxxxxxxxxxxx |xxxxxxxxxxxxx |     21561187 |     21560538 |     21560532 |xxxxxxxxxxxxx |xxxxxxxxxxxxx |xxxxxxxxxxxxx |xxxxxxxxxxxxx |     46980538 |     46976374 |     46976374 |
bpred_bimod.jr_hits                             79 |           79 |           79 |xxxxxxxxxxxxx |xxxxxxxxxxxxx |xxxxxxxxxxxxx |xxxxxxxxxxxxx |           87 |           87 |           87 |xxxxxxxxxxxxx |xxxxxxxxxxxxx |xxxxxxxxxxxxx |xxxxxxxxxxxxx |          103 |          103 |          103 |xxxxxxxxxxxxx |xxxxxxxxxxxxx |xxxxxxxxxxxxx |xxxxxxxxxxxxx |          135 |          135 |          135 |xxxxxxxxxxxxx |xxxxxxxxxxxxx |xxxxxxxxxxxxx |xxxxxxxxxxxxx |          199 |          199 |          199 |xxxxxxxxxxxxx |xxxxxxxxxxxxx |xxxxxxxxxxxxx |xxxxxxxxxxxxx |          327 |          327 |          327 |xxxxxxxxxxxxx |xxxxxxxxxxxxx |xxxxxxxxxxxxx |xxxxxxxxxxxxx |          583 |          583 |          583 |xxxxxxxxxxxxx |xxxxxxxxxxxxx |xxxxxxxxxxxxx |xxxxxxxxxxxxx |         1100 |         1100 |         1100 |xxxxxxxxxxxxx |xxxxxxxxxxxxx |xxxxxxxxxxxxx |xxxxxxxxxxxxx |         2126 |         2126 |         2126 |xxxxxxxxxxxxx |xxxxxxxxxxxxx |xxxxxxxxxxxxx |xxxxxxxxxxxxx |         4178 |         4178 |         4178 |xxxxxxxxxxxxx |xxxxxxxxxxxxx |xxxxxxxxxxxxx |xxxxxxxxxxxxx |         8282 |         8282 |         8282 |
bpred_bimod.jr_seen                             80 |           80 |           80 |xxxxxxxxxxxxx |xxxxxxxxxxxxx |xxxxxxxxxxxxx |xxxxxxxxxxxxx |           88 |           88 |           88 |xxxxxxxxxxxxx |xxxxxxxxxxxxx |xxxxxxxxxxxxx |xxxxxxxxxxxxx |          104 |          104 |          104 |xxxxxxxxxxxxx |xxxxxxxxxxxxx |xxxxxxxxxxxxx |xxxxxxxxxxxxx |          136 |          136 |          136 |xxxxxxxxxxxxx |xxxxxxxxxxxxx |xxxxxxxxxxxxx |xxxxxxxxxxxxx |          200 |          200 |          200 |xxxxxxxxxxxxx |xxxxxxxxxxxxx |xxxxxxxxxxxxx |xxxxxxxxxxxxx |          328 |          328 |          328 |xxxxxxxxxxxxx |xxxxxxxxxxxxx |xxxxxxxxxxxxx |xxxxxxxxxxxxx |          584 |          584 |          584 |xxxxxxxxxxxxx |xxxxxxxxxxxxx |xxxxxxxxxxxxx |xxxxxxxxxxxxx |         1101 |         1101 |         1101 |xxxxxxxxxxxxx |xxxxxxxxxxxxx |xxxxxxxxxxxxx |xxxxxxxxxxxxx |         2127 |         2127 |         2127 |xxxxxxxxxxxxx |xxxxxxxxxxxxx |xxxxxxxxxxxxx |xxxxxxxxxxxxx |         4179 |         4179 |         4179 |xxxxxxxxxxxxx |xxxxxxxxxxxxx |xxxxxxxxxxxxx |xxxxxxxxxxxxx |         8283 |         8283 |         8283 |
bpred_bimod.jr_non_ras_hits.PP                   0 |            0 |            0 |xxxxxxxxxxxxx |xxxxxxxxxxxxx |xxxxxxxxxxxxx |xxxxxxxxxxxxx |            0 |            0 |            0 |xxxxxxxxxxxxx |xxxxxxxxxxxxx |xxxxxxxxxxxxx |xxxxxxxxxxxxx |            0 |            0 |            0 |xxxxxxxxxxxxx |xxxxxxxxxxxxx |xxxxxxxxxxxxx |xxxxxxxxxxxxx |            0 |            0 |            0 |xxxxxxxxxxxxx |xxxxxxxxxxxxx |xxxxxxxxxxxxx |xxxxxxxxxxxxx |            0 |            0 |            0 |xxxxxxxxxxxxx |xxxxxxxxxxxxx |xxxxxxxxxxxxx |xxxxxxxxxxxxx |            0 |            0 |            0 |xxxxxxxxxxxxx |xxxxxxxxxxxxx |xxxxxxxxxxxxx |xxxxxxxxxxxxx |            0 |            0 |            0 |xxxxxxxxxxxxx |xxxxxxxxxxxxx |xxxxxxxxxxxxx |xxxxxxxxxxxxx |            0 |            0 |            0 |xxxxxxxxxxxxx |xxxxxxxxxxxxx |xxxxxxxxxxxxx |xxxxxxxxxxxxx |            0 |            0 |            0 |xxxxxxxxxxxxx |xxxxxxxxxxxxx |xxxxxxxxxxxxx |xxxxxxxxxxxxx |            0 |            0 |            0 |xxxxxxxxxxxxx |xxxxxxxxxxxxx |xxxxxxxxxxxxx |xxxxxxxxxxxxx |            0 |            0 |            0 |
bpred_bimod.jr_non_ras_seen.PP                   0 |            0 |            0 |xxxxxxxxxxxxx |xxxxxxxxxxxxx |xxxxxxxxxxxxx |xxxxxxxxxxxxx |            0 |            0 |            0 |xxxxxxxxxxxxx |xxxxxxxxxxxxx |xxxxxxxxxxxxx |xxxxxxxxxxxxx |            0 |            0 |            0 |xxxxxxxxxxxxx |xxxxxxxxxxxxx |xxxxxxxxxxxxx |xxxxxxxxxxxxx |            0 |            0 |            0 |xxxxxxxxxxxxx |xxxxxxxxxxxxx |xxxxxxxxxxxxx |xxxxxxxxxxxxx |            0 |            0 |            0 |xxxxxxxxxxxxx |xxxxxxxxxxxxx |xxxxxxxxxxxxx |xxxxxxxxxxxxx |            0 |            0 |            0 |xxxxxxxxxxxxx |xxxxxxxxxxxxx |xxxxxxxxxxxxx |xxxxxxxxxxxxx |            0 |            0 |            0 |xxxxxxxxxxxxx |xxxxxxxxxxxxx |xxxxxxxxxxxxx |xxxxxxxxxxxxx |            1 |            1 |            1 |xxxxxxxxxxxxx |xxxxxxxxxxxxx |xxxxxxxxxxxxx |xxxxxxxxxxxxx |            1 |            1 |            1 |xxxxxxxxxxxxx |xxxxxxxxxxxxx |xxxxxxxxxxxxx |xxxxxxxxxxxxx |            1 |            1 |            1 |xxxxxxxxxxxxx |xxxxxxxxxxxxx |xxxxxxxxxxxxx |xxxxxxxxxxxxx |            1 |            1 |            1 |
bpred_bimod.bpred_addr_rate                 0.7739 |       0.7740 |       0.7740 |xxxxxxxxxxxxx |xxxxxxxxxxxxx |xxxxxxxxxxxxx |xxxxxxxxxxxxx |       0.7815 |       0.7816 |       0.7815 |xxxxxxxxxxxxx |xxxxxxxxxxxxx |xxxxxxxxxxxxx |xxxxxxxxxxxxx |       0.7706 |       0.7706 |       0.7707 |xxxxxxxxxxxxx |xxxxxxxxxxxxx |xxxxxxxxxxxxx |xxxxxxxxxxxxx |       0.7774 |       0.7775 |       0.7775 |xxxxxxxxxxxxx |xxxxxxxxxxxxx |xxxxxxxxxxxxx |xxxxxxxxxxxxx |       0.7686 |       0.7686 |       0.7686 |xxxxxxxxxxxxx |xxxxxxxxxxxxx |xxxxxxxxxxxxx |xxxxxxxxxxxxx |       0.7746 |       0.7746 |       0.7746 |xxxxxxxxxxxxx |xxxxxxxxxxxxx |xxxxxxxxxxxxx |xxxxxxxxxxxxx |       0.7666 |       0.7666 |       0.7666 |xxxxxxxxxxxxx |xxxxxxxxxxxxx |xxxxxxxxxxxxx |xxxxxxxxxxxxx |       0.7783 |       0.7783 |       0.7783 |xxxxxxxxxxxxx |xxxxxxxxxxxxx |xxxxxxxxxxxxx |xxxxxxxxxxxxx |       0.7710 |       0.7710 |       0.7710 |xxxxxxxxxxxxx |xxxxxxxxxxxxx |xxxxxxxxxxxxx |xxxxxxxxxxxxx |       0.7758 |       0.7758 |       0.7758 |xxxxxxxxxxxxx |xxxxxxxxxxxxx |xxxxxxxxxxxxx |xxxxxxxxxxxxx |       0.7692 |       0.7692 |       0.7692 |
bpred_bimod.bpred_dir_rate                  0.7752 |       0.7753 |       0.7753 |xxxxxxxxxxxxx |xxxxxxxxxxxxx |xxxxxxxxxxxxx |xxxxxxxxxxxxx |       0.7822 |       0.7822 |       0.7822 |xxxxxxxxxxxxx |xxxxxxxxxxxxx |xxxxxxxxxxxxx |xxxxxxxxxxxxx |       0.7709 |       0.7709 |       0.7709 |xxxxxxxxxxxxx |xxxxxxxxxxxxx |xxxxxxxxxxxxx |xxxxxxxxxxxxx |       0.7776 |       0.7776 |       0.7776 |xxxxxxxxxxxxx |xxxxxxxxxxxxx |xxxxxxxxxxxxx |xxxxxxxxxxxxx |       0.7686 |       0.7687 |       0.7687 |xxxxxxxxxxxxx |xxxxxxxxxxxxx |xxxxxxxxxxxxx |xxxxxxxxxxxxx |       0.7747 |       0.7747 |       0.7747 |xxxxxxxxxxxxx |xxxxxxxxxxxxx |xxxxxxxxxxxxx |xxxxxxxxxxxxx |       0.7666 |       0.7667 |       0.7667 |xxxxxxxxxxxxx |xxxxxxxxxxxxx |xxxxxxxxxxxxx |xxxxxxxxxxxxx |       0.7783 |       0.7783 |       0.7783 |xxxxxxxxxxxxx |xxxxxxxxxxxxx |xxxxxxxxxxxxx |xxxxxxxxxxxxx |       0.7710 |       0.7710 |       0.7710 |xxxxxxxxxxxxx |xxxxxxxxxxxxx |xxxxxxxxxxxxx |xxxxxxxxxxxxx |       0.7758 |       0.7758 |       0.7758 |xxxxxxxxxxxxx |xxxxxxxxxxxxx |xxxxxxxxxxxxx |xxxxxxxxxxxxx |       0.7692 |       0.7692 |       0.7692 |
bpred_bimod.bpred_jr_rate                   0.9875 |       0.9875 |       0.9875 |xxxxxxxxxxxxx |xxxxxxxxxxxxx |xxxxxxxxxxxxx |xxxxxxxxxxxxx |       0.9886 |       0.9886 |       0.9886 |xxxxxxxxxxxxx |xxxxxxxxxxxxx |xxxxxxxxxxxxx |xxxxxxxxxxxxx |       0.9904 |       0.9904 |       0.9904 |xxxxxxxxxxxxx |xxxxxxxxxxxxx |xxxxxxxxxxxxx |xxxxxxxxxxxxx |       0.9926 |       0.9926 |       0.9926 |xxxxxxxxxxxxx |xxxxxxxxxxxxx |xxxxxxxxxxxxx |xxxxxxxxxxxxx |       0.9950 |       0.9950 |       0.9950 |xxxxxxxxxxxxx |xxxxxxxxxxxxx |xxxxxxxxxxxxx |xxxxxxxxxxxxx |       0.9970 |       0.9970 |       0.9970 |xxxxxxxxxxxxx |xxxxxxxxxxxxx |xxxxxxxxxxxxx |xxxxxxxxxxxxx |       0.9983 |       0.9983 |       0.9983 |xxxxxxxxxxxxx |xxxxxxxxxxxxx |xxxxxxxxxxxxx |xxxxxxxxxxxxx |       0.9991 |       0.9991 |       0.9991 |xxxxxxxxxxxxx |xxxxxxxxxxxxx |xxxxxxxxxxxxx |xxxxxxxxxxxxx |       0.9995 |       0.9995 |       0.9995 |xxxxxxxxxxxxx |xxxxxxxxxxxxx |xxxxxxxxxxxxx |xxxxxxxxxxxxx |       0.9998 |       0.9998 |       0.9998 |xxxxxxxxxxxxx |xxxxxxxxxxxxx |xxxxxxxxxxxxx |xxxxxxxxxxxxx |       0.9999 |       0.9999 |       0.9999 |
bpred_bimod.bpred_jr_non_ras_rate.PP       <error: |      <error: |      <error: |xxxxxxxxxxxxx |xxxxxxxxxxxxx |xxxxxxxxxxxxx |xxxxxxxxxxxxx |      <error: |      <error: |      <error: |xxxxxxxxxxxxx |xxxxxxxxxxxxx |xxxxxxxxxxxxx |xxxxxxxxxxxxx |      <error: |      <error: |      <error: |xxxxxxxxxxxxx |xxxxxxxxxxxxx |xxxxxxxxxxxxx |xxxxxxxxxxxxx |      <error: |      <error: |      <error: |xxxxxxxxxxxxx |xxxxxxxxxxxxx |xxxxxxxxxxxxx |xxxxxxxxxxxxx |      <error: |      <error: |      <error: |xxxxxxxxxxxxx |xxxxxxxxxxxxx |xxxxxxxxxxxxx |xxxxxxxxxxxxx |      <error: |      <error: |      <error: |xxxxxxxxxxxxx |xxxxxxxxxxxxx |xxxxxxxxxxxxx |xxxxxxxxxxxxx |      <error: |      <error: |      <error: |xxxxxxxxxxxxx |xxxxxxxxxxxxx |xxxxxxxxxxxxx |xxxxxxxxxxxxx |       0.0000 |       0.0000 |       0.0000 |xxxxxxxxxxxxx |xxxxxxxxxxxxx |xxxxxxxxxxxxx |xxxxxxxxxxxxx |       0.0000 |       0.0000 |       0.0000 |xxxxxxxxxxxxx |xxxxxxxxxxxxx |xxxxxxxxxxxxx |xxxxxxxxxxxxx |       0.0000 |       0.0000 |       0.0000 |xxxxxxxxxxxxx |xxxxxxxxxxxxx |xxxxxxxxxxxxx |xxxxxxxxxxxxx |       0.0000 |       0.0000 |       0.0000 |
bpred_bimod.retstack_pushes                     82 |           82 |           82 |xxxxxxxxxxxxx |xxxxxxxxxxxxx |xxxxxxxxxxxxx |xxxxxxxxxxxxx |           90 |           90 |           90 |xxxxxxxxxxxxx |xxxxxxxxxxxxx |xxxxxxxxxxxxx |xxxxxxxxxxxxx |          106 |          106 |          106 |xxxxxxxxxxxxx |xxxxxxxxxxxxx |xxxxxxxxxxxxx |xxxxxxxxxxxxx |          138 |          138 |          138 |xxxxxxxxxxxxx |xxxxxxxxxxxxx |xxxxxxxxxxxxx |xxxxxxxxxxxxx |          202 |          202 |          202 |xxxxxxxxxxxxx |xxxxxxxxxxxxx |xxxxxxxxxxxxx |xxxxxxxxxxxxx |          330 |          330 |          330 |xxxxxxxxxxxxx |xxxxxxxxxxxxx |xxxxxxxxxxxxx |xxxxxxxxxxxxx |          586 |          586 |          586 |xxxxxxxxxxxxx |xxxxxxxxxxxxx |xxxxxxxxxxxxx |xxxxxxxxxxxxx |         1102 |         1102 |         1102 |xxxxxxxxxxxxx |xxxxxxxxxxxxx |xxxxxxxxxxxxx |xxxxxxxxxxxxx |         2128 |         2128 |         2128 |xxxxxxxxxxxxx |xxxxxxxxxxxxx |xxxxxxxxxxxxx |xxxxxxxxxxxxx |         4180 |         4180 |         4180 |xxxxxxxxxxxxx |xxxxxxxxxxxxx |xxxxxxxxxxxxx |xxxxxxxxxxxxx |         8284 |         8284 |         8284 |
bpred_bimod.retstack_pops                       80 |           80 |           80 |xxxxxxxxxxxxx |xxxxxxxxxxxxx |xxxxxxxxxxxxx |xxxxxxxxxxxxx |           88 |           88 |           88 |xxxxxxxxxxxxx |xxxxxxxxxxxxx |xxxxxxxxxxxxx |xxxxxxxxxxxxx |          104 |          104 |          104 |xxxxxxxxxxxxx |xxxxxxxxxxxxx |xxxxxxxxxxxxx |xxxxxxxxxxxxx |          136 |          136 |          136 |xxxxxxxxxxxxx |xxxxxxxxxxxxx |xxxxxxxxxxxxx |xxxxxxxxxxxxx |          200 |          200 |          200 |xxxxxxxxxxxxx |xxxxxxxxxxxxx |xxxxxxxxxxxxx |xxxxxxxxxxxxx |          328 |          328 |          328 |xxxxxxxxxxxxx |xxxxxxxxxxxxx |xxxxxxxxxxxxx |xxxxxxxxxxxxx |          584 |          584 |          584 |xxxxxxxxxxxxx |xxxxxxxxxxxxx |xxxxxxxxxxxxx |xxxxxxxxxxxxx |         1100 |         1100 |         1100 |xxxxxxxxxxxxx |xxxxxxxxxxxxx |xxxxxxxxxxxxx |xxxxxxxxxxxxx |         2126 |         2126 |         2126 |xxxxxxxxxxxxx |xxxxxxxxxxxxx |xxxxxxxxxxxxx |xxxxxxxxxxxxx |         4178 |         4178 |         4178 |xxxxxxxxxxxxx |xxxxxxxxxxxxx |xxxxxxxxxxxxx |xxxxxxxxxxxxx |         8282 |         8282 |         8282 |
bpred_bimod.used_ras.PP                         80 |           80 |           80 |xxxxxxxxxxxxx |xxxxxxxxxxxxx |xxxxxxxxxxxxx |xxxxxxxxxxxxx |           88 |           88 |           88 |xxxxxxxxxxxxx |xxxxxxxxxxxxx |xxxxxxxxxxxxx |xxxxxxxxxxxxx |          104 |          104 |          104 |xxxxxxxxxxxxx |xxxxxxxxxxxxx |xxxxxxxxxxxxx |xxxxxxxxxxxxx |          136 |          136 |          136 |xxxxxxxxxxxxx |xxxxxxxxxxxxx |xxxxxxxxxxxxx |xxxxxxxxxxxxx |          200 |          200 |          200 |xxxxxxxxxxxxx |xxxxxxxxxxxxx |xxxxxxxxxxxxx |xxxxxxxxxxxxx |          328 |          328 |          328 |xxxxxxxxxxxxx |xxxxxxxxxxxxx |xxxxxxxxxxxxx |xxxxxxxxxxxxx |          584 |          584 |          584 |xxxxxxxxxxxxx |xxxxxxxxxxxxx |xxxxxxxxxxxxx |xxxxxxxxxxxxx |         1100 |         1100 |         1100 |xxxxxxxxxxxxx |xxxxxxxxxxxxx |xxxxxxxxxxxxx |xxxxxxxxxxxxx |         2126 |         2126 |         2126 |xxxxxxxxxxxxx |xxxxxxxxxxxxx |xxxxxxxxxxxxx |xxxxxxxxxxxxx |         4178 |         4178 |         4178 |xxxxxxxxxxxxx |xxxxxxxxxxxxx |xxxxxxxxxxxxx |xxxxxxxxxxxxx |         8282 |         8282 |         8282 |
bpred_bimod.ras_hits.PP                         79 |           79 |           79 |xxxxxxxxxxxxx |xxxxxxxxxxxxx |xxxxxxxxxxxxx |xxxxxxxxxxxxx |           87 |           87 |           87 |xxxxxxxxxxxxx |xxxxxxxxxxxxx |xxxxxxxxxxxxx |xxxxxxxxxxxxx |          103 |          103 |          103 |xxxxxxxxxxxxx |xxxxxxxxxxxxx |xxxxxxxxxxxxx |xxxxxxxxxxxxx |          135 |          135 |          135 |xxxxxxxxxxxxx |xxxxxxxxxxxxx |xxxxxxxxxxxxx |xxxxxxxxxxxxx |          199 |          199 |          199 |xxxxxxxxxxxxx |xxxxxxxxxxxxx |xxxxxxxxxxxxx |xxxxxxxxxxxxx |          327 |          327 |          327 |xxxxxxxxxxxxx |xxxxxxxxxxxxx |xxxxxxxxxxxxx |xxxxxxxxxxxxx |          583 |          583 |          583 |xxxxxxxxxxxxx |xxxxxxxxxxxxx |xxxxxxxxxxxxx |xxxxxxxxxxxxx |         1100 |         1100 |         1100 |xxxxxxxxxxxxx |xxxxxxxxxxxxx |xxxxxxxxxxxxx |xxxxxxxxxxxxx |         2126 |         2126 |         2126 |xxxxxxxxxxxxx |xxxxxxxxxxxxx |xxxxxxxxxxxxx |xxxxxxxxxxxxx |         4178 |         4178 |         4178 |xxxxxxxxxxxxx |xxxxxxxxxxxxx |xxxxxxxxxxxxx |xxxxxxxxxxxxx |         8282 |         8282 |         8282 |
bpred_bimod.ras_rate.PP                     0.9875 |       0.9875 |       0.9875 |xxxxxxxxxxxxx |xxxxxxxxxxxxx |xxxxxxxxxxxxx |xxxxxxxxxxxxx |       0.9886 |       0.9886 |       0.9886 |xxxxxxxxxxxxx |xxxxxxxxxxxxx |xxxxxxxxxxxxx |xxxxxxxxxxxxx |       0.9904 |       0.9904 |       0.9904 |xxxxxxxxxxxxx |xxxxxxxxxxxxx |xxxxxxxxxxxxx |xxxxxxxxxxxxx |       0.9926 |       0.9926 |       0.9926 |xxxxxxxxxxxxx |xxxxxxxxxxxxx |xxxxxxxxxxxxx |xxxxxxxxxxxxx |       0.9950 |       0.9950 |       0.9950 |xxxxxxxxxxxxx |xxxxxxxxxxxxx |xxxxxxxxxxxxx |xxxxxxxxxxxxx |       0.9970 |       0.9970 |       0.9970 |xxxxxxxxxxxxx |xxxxxxxxxxxxx |xxxxxxxxxxxxx |xxxxxxxxxxxxx |       0.9983 |       0.9983 |       0.9983 |xxxxxxxxxxxxx |xxxxxxxxxxxxx |xxxxxxxxxxxxx |xxxxxxxxxxxxx |       1.0000 |       1.0000 |       1.0000 |xxxxxxxxxxxxx |xxxxxxxxxxxxx |xxxxxxxxxxxxx |xxxxxxxxxxxxx |       1.0000 |       1.0000 |       1.0000 |xxxxxxxxxxxxx |xxxxxxxxxxxxx |xxxxxxxxxxxxx |xxxxxxxxxxxxx |       1.0000 |       1.0000 |       1.0000 |xxxxxxxxxxxxx |xxxxxxxxxxxxx |xxxxxxxxxxxxx |xxxxxxxxxxxxx |       1.0000 |       1.0000 |       1.0000 |
bpred_2lev.lookups                   xxxxxxxxxxxxx |xxxxxxxxxxxxx |xxxxxxxxxxxxx |       113455 |       113455 |       113455 |       113455 |xxxxxxxxxxxxx |xxxxxxxxxxxxx |xxxxxxxxxxxxx |       236676 |       236676 |       236676 |       236676 |xxxxxxxxxxxxx |xxxxxxxxxxxxx |xxxxxxxxxxxxx |       515662 |       515662 |       515662 |       515662 |xxxxxxxxxxxxx |xxxxxxxxxxxxx |xxxxxxxxxxxxx |      1073048 |      1073048 |      1073048 |      1073048 |xxxxxxxxxxxxx |xxxxxxxxxxxxx |xxxxxxxxxxxxx |      2319974 |      2319974 |      2319974 |      2319974 |xxxxxxxxxxxxx |xxxxxxxxxxxxx |xxxxxxxxxxxxx |      4813553 |      4813553 |      4813553 |      4813553 |xxxxxxxxxxxxx |xxxxxxxxxxxxx |xxxxxxxxxxxxx |     10330502 |     10330502 |     10330502 |     10330502 |xxxxxxxxxxxxx |xxxxxxxxxxxxx |xxxxxxxxxxxxx |     21941419 |     21941419 |     21941419 |     21941419 |xxxxxxxxxxxxx |xxxxxxxxxxxxx |xxxxxxxxxxxxx |     46692756 |     46692756 |     46692756 |     46692756 |xxxxxxxxxxxxx |xxxxxxxxxxxxx |xxxxxxxxxxxxx |     96165523 |     96165523 |     96165523 |     96165523 |xxxxxxxxxxxxx |xxxxxxxxxxxxx |xxxxxxxxxxxxx |    203560122 |    203560122 |    203560122 |    203560122 |
[...]
bpred_2lev.retstack_pushes           xxxxxxxxxxxxx |xxxxxxxxxxxxx |xxxxxxxxxxxxx |           82 |           82 |           82 |           82 |xxxxxxxxxxxxx |xxxxxxxxxxxxx |xxxxxxxxxxxxx |           90 |           90 |           90 |           90 |xxxxxxxxxxxxx |xxxxxxxxxxxxx |xxxxxxxxxxxxx |          106 |          106 |          106 |          106 |xxxxxxxxxxxxx |xxxxxxxxxxxxx |xxxxxxxxxxxxx |          138 |          138 |          138 |          138 |xxxxxxxxxxxxx |xxxxxxxxxxxxx |xxxxxxxxxxxxx |          202 |          202 |          202 |          202 |xxxxxxxxxxxxx |xxxxxxxxxxxxx |xxxxxxxxxxxxx |          330 |          330 |          330 |          330 |xxxxxxxxxxxxx |xxxxxxxxxxxxx |xxxxxxxxxxxxx |          586 |          586 |          586 |          586 |xxxxxxxxxxxxx |xxxxxxxxxxxxx |xxxxxxxxxxxxx |         1102 |         1102 |         1102 |         1102 |xxxxxxxxxxxxx |xxxxxxxxxxxxx |xxxxxxxxxxxxx |         2128 |         2128 |         2128 |         2128 |xxxxxxxxxxxxx |xxxxxxxxxxxxx |xxxxxxxxxxxxx |         4180 |         4180 |         4180 |         4180 |xxxxxxxxxxxxx |xxxxxxxxxxxxx |xxxxxxxxxxxxx |         8284 |         8284 |         8284 |         8284 |
bpred_2lev.retstack_pops             xxxxxxxxxxxxx |xxxxxxxxxxxxx |xxxxxxxxxxxxx |           80 |           80 |           80 |           80 |xxxxxxxxxxxxx |xxxxxxxxxxxxx |xxxxxxxxxxxxx |           88 |           88 |           88 |           88 |xxxxxxxxxxxxx |xxxxxxxxxxxxx |xxxxxxxxxxxxx |          104 |          104 |          104 |          104 |xxxxxxxxxxxxx |xxxxxxxxxxxxx |xxxxxxxxxxxxx |          136 |          136 |          136 |          136 |xxxxxxxxxxxxx |xxxxxxxxxxxxx |xxxxxxxxxxxxx |          200 |          200 |          200 |          200 |xxxxxxxxxxxxx |xxxxxxxxxxxxx |xxxxxxxxxxxxx |          328 |          328 |          328 |          328 |xxxxxxxxxxxxx |xxxxxxxxxxxxx |xxxxxxxxxxxxx |          584 |          584 |          584 |          584 |xxxxxxxxxxxxx |xxxxxxxxxxxxx |xxxxxxxxxxxxx |         1100 |         1100 |         1100 |         1100 |xxxxxxxxxxxxx |xxxxxxxxxxxxx |xxxxxxxxxxxxx |         2126 |         2126 |         2126 |         2126 |xxxxxxxxxxxxx |xxxxxxxxxxxxx |xxxxxxxxxxxxx |         4178 |         4178 |         4178 |         4178 |xxxxxxxxxxxxx |xxxxxxxxxxxxx |xxxxxxxxxxxxx |         8282 |         8282 |         8282 |         8282 |
bpred_2lev.used_ras.PP               xxxxxxxxxxxxx |xxxxxxxxxxxxx |xxxxxxxxxxxxx |           80 |           80 |           80 |           80 |xxxxxxxxxxxxx |xxxxxxxxxxxxx |xxxxxxxxxxxxx |           88 |           88 |           88 |           88 |xxxxxxxxxxxxx |xxxxxxxxxxxxx |xxxxxxxxxxxxx |          104 |          104 |          104 |          104 |xxxxxxxxxxxxx |xxxxxxxxxxxxx |xxxxxxxxxxxxx |          136 |          136 |          136 |          136 |xxxxxxxxxxxxx |xxxxxxxxxxxxx |xxxxxxxxxxxxx |          200 |          200 |          200 |          200 |xxxxxxxxxxxxx |xxxxxxxxxxxxx |xxxxxxxxxxxxx |          328 |          328 |          328 |          328 |xxxxxxxxxxxxx |xxxxxxxxxxxxx |xxxxxxxxxxxxx |          584 |          584 |          584 |          584 |xxxxxxxxxxxxx |xxxxxxxxxxxxx |xxxxxxxxxxxxx |         1100 |         1100 |         1100 |         1100 |xxxxxxxxxxxxx |xxxxxxxxxxxxx |xxxxxxxxxxxxx |         2126 |         2126 |         2126 |         2126 |xxxxxxxxxxxxx |xxxxxxxxxxxxx |xxxxxxxxxxxxx |         4178 |         4178 |         4178 |         4178 |xxxxxxxxxxxxx |xxxxxxxxxxxxx |xxxxxxxxxxxxx |         8282 |         8282 |         8282 |         8282 |
bpred_2lev.ras_hits.PP               xxxxxxxxxxxxx |xxxxxxxxxxxxx |xxxxxxxxxxxxx |           79 |           79 |           79 |           79 |xxxxxxxxxxxxx |xxxxxxxxxxxxx |xxxxxxxxxxxxx |           87 |           87 |           87 |           87 |xxxxxxxxxxxxx |xxxxxxxxxxxxx |xxxxxxxxxxxxx |          103 |          103 |          103 |          103 |xxxxxxxxxxxxx |xxxxxxxxxxxxx |xxxxxxxxxxxxx |          135 |          135 |          135 |          135 |xxxxxxxxxxxxx |xxxxxxxxxxxxx |xxxxxxxxxxxxx |          199 |          199 |          199 |          199 |xxxxxxxxxxxxx |xxxxxxxxxxxxx |xxxxxxxxxxxxx |          327 |          327 |          327 |          327 |xxxxxxxxxxxxx |xxxxxxxxxxxxx |xxxxxxxxxxxxx |          583 |          583 |          583 |          583 |xxxxxxxxxxxxx |xxxxxxxxxxxxx |xxxxxxxxxxxxx |         1100 |         1100 |         1100 |         1100 |xxxxxxxxxxxxx |xxxxxxxxxxxxx |xxxxxxxxxxxxx |         2126 |         2126 |         2126 |         2126 |xxxxxxxxxxxxx |xxxxxxxxxxxxx |xxxxxxxxxxxxx |         4178 |         4178 |         4178 |         4178 |xxxxxxxxxxxxx |xxxxxxxxxxxxx |xxxxxxxxxxxxx |         8282 |         8282 |         8282 |         8282 |
bpred_2lev.ras_rate.PP               xxxxxxxxxxxxx |xxxxxxxxxxxxx |xxxxxxxxxxxxx |       0.9875 |       0.9875 |       0.9875 |       0.9875 |xxxxxxxxxxxxx |xxxxxxxxxxxxx |xxxxxxxxxxxxx |       0.9886 |       0.9886 |       0.9886 |       0.9886 |xxxxxxxxxxxxx |xxxxxxxxxxxxx |xxxxxxxxxxxxx |       0.9904 |       0.9904 |       0.9904 |       0.9904 |xxxxxxxxxxxxx |xxxxxxxxxxxxx |xxxxxxxxxxxxx |       0.9926 |       0.9926 |       0.9926 |       0.9926 |xxxxxxxxxxxxx |xxxxxxxxxxxxx |xxxxxxxxxxxxx |       0.9950 |       0.9950 |       0.9950 |       0.9950 |xxxxxxxxxxxxx |xxxxxxxxxxxxx |xxxxxxxxxxxxx |       0.9970 |       0.9970 |       0.9970 |       0.9970 |xxxxxxxxxxxxx |xxxxxxxxxxxxx |xxxxxxxxxxxxx |       0.9983 |       0.9983 |       0.9983 |       0.9983 |xxxxxxxxxxxxx |xxxxxxxxxxxxx |xxxxxxxxxxxxx |       1.0000 |       1.0000 |       1.0000 |       1.0000 |xxxxxxxxxxxxx |xxxxxxxxxxxxx |xxxxxxxxxxxxx |       1.0000 |       1.0000 |       1.0000 |       1.0000 |xxxxxxxxxxxxx |xxxxxxxxxxxxx |xxxxxxxxxxxxx |       1.0000 |       1.0000 |       1.0000 |       1.0000 |xxxxxxxxxxxxx |xxxxxxxxxxxxx |xxxxxxxxxxxxx |       1.0000 |       1.0000 |       1.0000 |       1.0000 |

Command list: 
	sslittle-na-sstrix-gcc -Wall -O3 -funroll-loops -finline-functions  -DRANDOM_SIZE=4096 -DOFFSET=4 -DSORT=tiled_mergesort sorts/tiled_mergesort1024993145.c simpleMain.c -o tiled_mergesort1703502246
	sim-cache -cache:dl1 dl1:256:32:1:l -cache:dl2 dl2:131072:32:1:l -cache:il1 il1:256:32:1:l -cache:il2 dl2 tiled_mergesort1703502246
	sim-cache -cache:dl1 dl1:256:32:1:l -cache:dl2 dl2:65536:32:1:l -cache:il1 il1:256:32:1:l -cache:il2 dl2 tiled_mergesort1703502246
	sim-cache -cache:dl1 dl1:1:32:256:l -cache:dl2 dl2:1:32:131072:l -cache:il1 il1:1:32:256:l -cache:il2 dl2 tiled_mergesort1703502246
	sim-cache -cache:dl1 dl1:1:32:256:l -cache:dl2 dl2:1:32:65536:l -cache:il1 il1:1:32:256:l -cache:il2 dl2 tiled_mergesort1703502246
	sim-bpred -bpred bimod -bpred:bimod 512 tiled_mergesort1703502246
	sim-bpred -bpred bimod -bpred:bimod 1024 tiled_mergesort1703502246
	sim-bpred -bpred bimod -bpred:bimod 2048 tiled_mergesort1703502246
	sim-bpred -bpred 2lev -bpred:2lev 1 512 10 1 tiled_mergesort1703502246
	sim-bpred -bpred 2lev -bpred:2lev 1 1024 10 1 tiled_mergesort1703502246
	sim-bpred -bpred 2lev -bpred:2lev 1 2048 10 1 tiled_mergesort1703502246
	sim-bpred -bpred 2lev -bpred:2lev 1 4096 10 1 tiled_mergesort1703502246
	sslittle-na-sstrix-gcc -Wall -O3 -funroll-loops -finline-functions  -DRANDOM_SIZE=8192 -DOFFSET=4 -DSORT=tiled_mergesort sorts/tiled_mergesort1024993145.c simpleMain.c -o tiled_mergesort1703502246
	sim-cache -cache:dl1 dl1:256:32:1:l -cache:dl2 dl2:131072:32:1:l -cache:il1 il1:256:32:1:l -cache:il2 dl2 tiled_mergesort1703502246
	sim-cache -cache:dl1 dl1:256:32:1:l -cache:dl2 dl2:65536:32:1:l -cache:il1 il1:256:32:1:l -cache:il2 dl2 tiled_mergesort1703502246
	sim-cache -cache:dl1 dl1:1:32:256:l -cache:dl2 dl2:1:32:131072:l -cache:il1 il1:1:32:256:l -cache:il2 dl2 tiled_mergesort1703502246
	sim-cache -cache:dl1 dl1:1:32:256:l -cache:dl2 dl2:1:32:65536:l -cache:il1 il1:1:32:256:l -cache:il2 dl2 tiled_mergesort1703502246
	sim-bpred -bpred bimod -bpred:bimod 512 tiled_mergesort1703502246
	sim-bpred -bpred bimod -bpred:bimod 1024 tiled_mergesort1703502246
	sim-bpred -bpred bimod -bpred:bimod 2048 tiled_mergesort1703502246
	sim-bpred -bpred 2lev -bpred:2lev 1 512 10 1 tiled_mergesort1703502246
	sim-bpred -bpred 2lev -bpred:2lev 1 1024 10 1 tiled_mergesort1703502246
	sim-bpred -bpred 2lev -bpred:2lev 1 2048 10 1 tiled_mergesort1703502246
	sim-bpred -bpred 2lev -bpred:2lev 1 4096 10 1 tiled_mergesort1703502246
	sslittle-na-sstrix-gcc -Wall -O3 -funroll-loops -finline-functions  -DRANDOM_SIZE=16384 -DOFFSET=4 -DSORT=tiled_mergesort sorts/tiled_mergesort1024993145.c simpleMain.c -o tiled_mergesort1703502246
	sim-cache -cache:dl1 dl1:256:32:1:l -cache:dl2 dl2:131072:32:1:l -cache:il1 il1:256:32:1:l -cache:il2 dl2 tiled_mergesort1703502246
	sim-cache -cache:dl1 dl1:256:32:1:l -cache:dl2 dl2:65536:32:1:l -cache:il1 il1:256:32:1:l -cache:il2 dl2 tiled_mergesort1703502246
	sim-cache -cache:dl1 dl1:1:32:256:l -cache:dl2 dl2:1:32:131072:l -cache:il1 il1:1:32:256:l -cache:il2 dl2 tiled_mergesort1703502246
	sim-cache -cache:dl1 dl1:1:32:256:l -cache:dl2 dl2:1:32:65536:l -cache:il1 il1:1:32:256:l -cache:il2 dl2 tiled_mergesort1703502246
	sim-bpred -bpred bimod -bpred:bimod 512 tiled_mergesort1703502246
	sim-bpred -bpred bimod -bpred:bimod 1024 tiled_mergesort1703502246
	sim-bpred -bpred bimod -bpred:bimod 2048 tiled_mergesort1703502246
	sim-bpred -bpred 2lev -bpred:2lev 1 512 10 1 tiled_mergesort1703502246
	sim-bpred -bpred 2lev -bpred:2lev 1 1024 10 1 tiled_mergesort1703502246
	sim-bpred -bpred 2lev -bpred:2lev 1 2048 10 1 tiled_mergesort1703502246
	sim-bpred -bpred 2lev -bpred:2lev 1 4096 10 1 tiled_mergesort1703502246
	sslittle-na-sstrix-gcc -Wall -O3 -funroll-loops -finline-functions  -DRANDOM_SIZE=32768 -DOFFSET=4 -DSORT=tiled_mergesort sorts/tiled_mergesort1024993145.c simpleMain.c -o tiled_mergesort1703502246
	sim-cache -cache:dl1 dl1:256:32:1:l -cache:dl2 dl2:131072:32:1:l -cache:il1 il1:256:32:1:l -cache:il2 dl2 tiled_mergesort1703502246
	sim-cache -cache:dl1 dl1:256:32:1:l -cache:dl2 dl2:65536:32:1:l -cache:il1 il1:256:32:1:l -cache:il2 dl2 tiled_mergesort1703502246
	sim-cache -cache:dl1 dl1:1:32:256:l -cache:dl2 dl2:1:32:131072:l -cache:il1 il1:1:32:256:l -cache:il2 dl2 tiled_mergesort1703502246
	sim-cache -cache:dl1 dl1:1:32:256:l -cache:dl2 dl2:1:32:65536:l -cache:il1 il1:1:32:256:l -cache:il2 dl2 tiled_mergesort1703502246
	sim-bpred -bpred bimod -bpred:bimod 512 tiled_mergesort1703502246
	sim-bpred -bpred bimod -bpred:bimod 1024 tiled_mergesort1703502246
	sim-bpred -bpred bimod -bpred:bimod 2048 tiled_mergesort1703502246
	sim-bpred -bpred 2lev -bpred:2lev 1 512 10 1 tiled_mergesort1703502246
	sim-bpred -bpred 2lev -bpred:2lev 1 1024 10 1 tiled_mergesort1703502246
	sim-bpred -bpred 2lev -bpred:2lev 1 2048 10 1 tiled_mergesort1703502246
	sim-bpred -bpred 2lev -bpred:2lev 1 4096 10 1 tiled_mergesort1703502246
	sslittle-na-sstrix-gcc -Wall -O3 -funroll-loops -finline-functions  -DRANDOM_SIZE=65536 -DOFFSET=4 -DSORT=tiled_mergesort sorts/tiled_mergesort1024993145.c simpleMain.c -o tiled_mergesort1703502246
	sim-cache -cache:dl1 dl1:256:32:1:l -cache:dl2 dl2:131072:32:1:l -cache:il1 il1:256:32:1:l -cache:il2 dl2 tiled_mergesort1703502246
	sim-cache -cache:dl1 dl1:256:32:1:l -cache:dl2 dl2:65536:32:1:l -cache:il1 il1:256:32:1:l -cache:il2 dl2 tiled_mergesort1703502246
	sim-cache -cache:dl1 dl1:1:32:256:l -cache:dl2 dl2:1:32:131072:l -cache:il1 il1:1:32:256:l -cache:il2 dl2 tiled_mergesort1703502246
	sim-cache -cache:dl1 dl1:1:32:256:l -cache:dl2 dl2:1:32:65536:l -cache:il1 il1:1:32:256:l -cache:il2 dl2 tiled_mergesort1703502246
	sim-bpred -bpred bimod -bpred:bimod 512 tiled_mergesort1703502246
	sim-bpred -bpred bimod -bpred:bimod 1024 tiled_mergesort1703502246
	sim-bpred -bpred bimod -bpred:bimod 2048 tiled_mergesort1703502246
	sim-bpred -bpred 2lev -bpred:2lev 1 512 10 1 tiled_mergesort1703502246
	sim-bpred -bpred 2lev -bpred:2lev 1 1024 10 1 tiled_mergesort1703502246
	sim-bpred -bpred 2lev -bpred:2lev 1 2048 10 1 tiled_mergesort1703502246
	sim-bpred -bpred 2lev -bpred:2lev 1 4096 10 1 tiled_mergesort1703502246
	sslittle-na-sstrix-gcc -Wall -O3 -funroll-loops -finline-functions  -DRANDOM_SIZE=131072 -DOFFSET=4 -DSORT=tiled_mergesort sorts/tiled_mergesort1024993145.c simpleMain.c -o tiled_mergesort1703502246
	sim-cache -cache:dl1 dl1:256:32:1:l -cache:dl2 dl2:131072:32:1:l -cache:il1 il1:256:32:1:l -cache:il2 dl2 tiled_mergesort1703502246
	sim-cache -cache:dl1 dl1:256:32:1:l -cache:dl2 dl2:65536:32:1:l -cache:il1 il1:256:32:1:l -cache:il2 dl2 tiled_mergesort1703502246
	sim-cache -cache:dl1 dl1:1:32:256:l -cache:dl2 dl2:1:32:131072:l -cache:il1 il1:1:32:256:l -cache:il2 dl2 tiled_mergesort1703502246
	sim-cache -cache:dl1 dl1:1:32:256:l -cache:dl2 dl2:1:32:65536:l -cache:il1 il1:1:32:256:l -cache:il2 dl2 tiled_mergesort1703502246
	sim-bpred -bpred bimod -bpred:bimod 512 tiled_mergesort1703502246
	sim-bpred -bpred bimod -bpred:bimod 1024 tiled_mergesort1703502246
	sim-bpred -bpred bimod -bpred:bimod 2048 tiled_mergesort1703502246
	sim-bpred -bpred 2lev -bpred:2lev 1 512 10 1 tiled_mergesort1703502246
	sim-bpred -bpred 2lev -bpred:2lev 1 1024 10 1 tiled_mergesort1703502246
	sim-bpred -bpred 2lev -bpred:2lev 1 2048 10 1 tiled_mergesort1703502246
	sim-bpred -bpred 2lev -bpred:2lev 1 4096 10 1 tiled_mergesort1703502246
	sslittle-na-sstrix-gcc -Wall -O3 -funroll-loops -finline-functions  -DRANDOM_SIZE=262144 -DOFFSET=4 -DSORT=tiled_mergesort sorts/tiled_mergesort1024993145.c simpleMain.c -o tiled_mergesort1703502246
	sim-cache -cache:dl1 dl1:256:32:1:l -cache:dl2 dl2:131072:32:1:l -cache:il1 il1:256:32:1:l -cache:il2 dl2 tiled_mergesort1703502246
	sim-cache -cache:dl1 dl1:256:32:1:l -cache:dl2 dl2:65536:32:1:l -cache:il1 il1:256:32:1:l -cache:il2 dl2 tiled_mergesort1703502246
	sim-cache -cache:dl1 dl1:1:32:256:l -cache:dl2 dl2:1:32:131072:l -cache:il1 il1:1:32:256:l -cache:il2 dl2 tiled_mergesort1703502246
	sim-cache -cache:dl1 dl1:1:32:256:l -cache:dl2 dl2:1:32:65536:l -cache:il1 il1:1:32:256:l -cache:il2 dl2 tiled_mergesort1703502246
	sim-bpred -bpred bimod -bpred:bimod 512 tiled_mergesort1703502246
	sim-bpred -bpred bimod -bpred:bimod 1024 tiled_mergesort1703502246
	sim-bpred -bpred bimod -bpred:bimod 2048 tiled_mergesort1703502246
	sim-bpred -bpred 2lev -bpred:2lev 1 512 10 1 tiled_mergesort1703502246
	sim-bpred -bpred 2lev -bpred:2lev 1 1024 10 1 tiled_mergesort1703502246
	sim-bpred -bpred 2lev -bpred:2lev 1 2048 10 1 tiled_mergesort1703502246
	sim-bpred -bpred 2lev -bpred:2lev 1 4096 10 1 tiled_mergesort1703502246
	sslittle-na-sstrix-gcc -Wall -O3 -funroll-loops -finline-functions  -DRANDOM_SIZE=524288 -DOFFSET=4 -DSORT=tiled_mergesort sorts/tiled_mergesort1024993145.c simpleMain.c -o tiled_mergesort1703502246
	sim-cache -cache:dl1 dl1:256:32:1:l -cache:dl2 dl2:131072:32:1:l -cache:il1 il1:256:32:1:l -cache:il2 dl2 tiled_mergesort1703502246
	sim-cache -cache:dl1 dl1:256:32:1:l -cache:dl2 dl2:65536:32:1:l -cache:il1 il1:256:32:1:l -cache:il2 dl2 tiled_mergesort1703502246
	sim-cache -cache:dl1 dl1:1:32:256:l -cache:dl2 dl2:1:32:131072:l -cache:il1 il1:1:32:256:l -cache:il2 dl2 tiled_mergesort1703502246
	sim-cache -cache:dl1 dl1:1:32:256:l -cache:dl2 dl2:1:32:65536:l -cache:il1 il1:1:32:256:l -cache:il2 dl2 tiled_mergesort1703502246
	sim-bpred -bpred bimod -bpred:bimod 512 tiled_mergesort1703502246
	sim-bpred -bpred bimod -bpred:bimod 1024 tiled_mergesort1703502246
	sim-bpred -bpred bimod -bpred:bimod 2048 tiled_mergesort1703502246
	sim-bpred -bpred 2lev -bpred:2lev 1 512 10 1 tiled_mergesort1703502246
	sim-bpred -bpred 2lev -bpred:2lev 1 1024 10 1 tiled_mergesort1703502246
	sim-bpred -bpred 2lev -bpred:2lev 1 2048 10 1 tiled_mergesort1703502246
	sim-bpred -bpred 2lev -bpred:2lev 1 4096 10 1 tiled_mergesort1703502246
	sslittle-na-sstrix-gcc -Wall -O3 -funroll-loops -finline-functions  -DRANDOM_SIZE=1048576 -DOFFSET=4 -DSORT=tiled_mergesort sorts/tiled_mergesort1024993145.c simpleMain.c -o tiled_mergesort1703502246
	sim-cache -cache:dl1 dl1:256:32:1:l -cache:dl2 dl2:131072:32:1:l -cache:il1 il1:256:32:1:l -cache:il2 dl2 tiled_mergesort1703502246
	sim-cache -cache:dl1 dl1:256:32:1:l -cache:dl2 dl2:65536:32:1:l -cache:il1 il1:256:32:1:l -cache:il2 dl2 tiled_mergesort1703502246
	sim-cache -cache:dl1 dl1:1:32:256:l -cache:dl2 dl2:1:32:131072:l -cache:il1 il1:1:32:256:l -cache:il2 dl2 tiled_mergesort1703502246
	sim-cache -cache:dl1 dl1:1:32:256:l -cache:dl2 dl2:1:32:65536:l -cache:il1 il1:1:32:256:l -cache:il2 dl2 tiled_mergesort1703502246
	sim-bpred -bpred bimod -bpred:bimod 512 tiled_mergesort1703502246
	sim-bpred -bpred bimod -bpred:bimod 1024 tiled_mergesort1703502246
	sim-bpred -bpred bimod -bpred:bimod 2048 tiled_mergesort1703502246
	sim-bpred -bpred 2lev -bpred:2lev 1 512 10 1 tiled_mergesort1703502246
	sim-bpred -bpred 2lev -bpred:2lev 1 1024 10 1 tiled_mergesort1703502246
	sim-bpred -bpred 2lev -bpred:2lev 1 2048 10 1 tiled_mergesort1703502246
	sim-bpred -bpred 2lev -bpred:2lev 1 4096 10 1 tiled_mergesort1703502246
	sslittle-na-sstrix-gcc -Wall -O3 -funroll-loops -finline-functions  -DRANDOM_SIZE=2097152 -DOFFSET=4 -DSORT=tiled_mergesort sorts/tiled_mergesort1024993145.c simpleMain.c -o tiled_mergesort1703502246
	sim-cache -cache:dl1 dl1:256:32:1:l -cache:dl2 dl2:131072:32:1:l -cache:il1 il1:256:32:1:l -cache:il2 dl2 tiled_mergesort1703502246
	sim-cache -cache:dl1 dl1:256:32:1:l -cache:dl2 dl2:65536:32:1:l -cache:il1 il1:256:32:1:l -cache:il2 dl2 tiled_mergesort1703502246
	sim-cache -cache:dl1 dl1:1:32:256:l -cache:dl2 dl2:1:32:131072:l -cache:il1 il1:1:32:256:l -cache:il2 dl2 tiled_mergesort1703502246
	sim-cache -cache:dl1 dl1:1:32:256:l -cache:dl2 dl2:1:32:65536:l -cache:il1 il1:1:32:256:l -cache:il2 dl2 tiled_mergesort1703502246
	sim-bpred -bpred bimod -bpred:bimod 512 tiled_mergesort1703502246
	sim-bpred -bpred bimod -bpred:bimod 1024 tiled_mergesort1703502246
	sim-bpred -bpred bimod -bpred:bimod 2048 tiled_mergesort1703502246
	sim-bpred -bpred 2lev -bpred:2lev 1 512 10 1 tiled_mergesort1703502246
	sim-bpred -bpred 2lev -bpred:2lev 1 1024 10 1 tiled_mergesort1703502246
	sim-bpred -bpred 2lev -bpred:2lev 1 2048 10 1 tiled_mergesort1703502246
	sim-bpred -bpred 2lev -bpred:2lev 1 4096 10 1 tiled_mergesort1703502246
	sslittle-na-sstrix-gcc -Wall -O3 -funroll-loops -finline-functions  -DRANDOM_SIZE=4194304 -DOFFSET=4 -DSORT=tiled_mergesort sorts/tiled_mergesort1024993145.c simpleMain.c -o tiled_mergesort1703502246
	sim-cache -cache:dl1 dl1:256:32:1:l -cache:dl2 dl2:131072:32:1:l -cache:il1 il1:256:32:1:l -cache:il2 dl2 tiled_mergesort1703502246
	sim-cache -cache:dl1 dl1:256:32:1:l -cache:dl2 dl2:65536:32:1:l -cache:il1 il1:256:32:1:l -cache:il2 dl2 tiled_mergesort1703502246
	sim-cache -cache:dl1 dl1:1:32:256:l -cache:dl2 dl2:1:32:131072:l -cache:il1 il1:1:32:256:l -cache:il2 dl2 tiled_mergesort1703502246
	sim-cache -cache:dl1 dl1:1:32:256:l -cache:dl2 dl2:1:32:65536:l -cache:il1 il1:1:32:256:l -cache:il2 dl2 tiled_mergesort1703502246
	sim-bpred -bpred bimod -bpred:bimod 512 tiled_mergesort1703502246
	sim-bpred -bpred bimod -bpred:bimod 1024 tiled_mergesort1703502246
	sim-bpred -bpred bimod -bpred:bimod 2048 tiled_mergesort1703502246
	sim-bpred -bpred 2lev -bpred:2lev 1 512 10 1 tiled_mergesort1703502246
	sim-bpred -bpred 2lev -bpred:2lev 1 1024 10 1 tiled_mergesort1703502246
	sim-bpred -bpred 2lev -bpred:2lev 1 2048 10 1 tiled_mergesort1703502246
	sim-bpred -bpred 2lev -bpred:2lev 1 4096 10 1 tiled_mergesort1703502246
