Wed Jun 29 00:53:20 2005
Run as: "./do_simple -c random.org2 -o 2 tiled_mergesort"
-------------------------------------------------------------------------------------------------
sim-cache                                     4096 |         4096 |         4096 |         4096 |         8192 |         8192 |         8192 |         8192 |        16384 |        16384 |        16384 |        16384 |        32768 |        32768 |        32768 |        32768 |        65536 |        65536 |        65536 |        65536 |       131072 |       131072 |       131072 |       131072 |       262144 |       262144 |       262144 |       262144 |       524288 |       524288 |       524288 |       524288 |      1048576 |      1048576 |      1048576 |      1048576 |      2097152 |      2097152 |      2097152 |      2097152 |      4194304 |      4194304 |      4194304 |      4194304 |
-cache:dl1 dl1:256:32:1:l -cache:dl2 dl2:131072:32:1:l -cache:il1 il1:256:32:1:l -cache:il2 dl2
-cache:dl1 dl1:256:32:1:l -cache:dl2 dl2:65536:32:1:l -cache:il1 il1:256:32:1:l -cache:il2 dl2
-cache:dl1 dl1:1:32:256:l -cache:dl2 dl2:1:32:131072:l -cache:il1 il1:1:32:256:l -cache:il2 dl2
-cache:dl1 dl1:1:32:256:l -cache:dl2 dl2:1:32:65536:l -cache:il1 il1:1:32:256:l -cache:il2 dl2
-------------------------------------------------------------------------------------------------
sim_num_insn                                861143 |       861143 |       861143 |       861143 |      1753101 |      1753101 |      1753101 |      1753101 |      3961026 |      3961026 |      3961026 |      3961026 |      8060245 |      8060245 |      8060245 |      8060245 |     17981840 |     17981840 |     17981840 |     17981840 |     36569863 |     36569863 |     36569863 |     36569863 |     80537313 |     80537313 |     80537313 |     80537313 |    168416602 |    168416602 |    168416602 |    168416602 |    366458207 |    366458207 |    366458207 |    366458207 |    742824629 |    742824629 |    742824629 |    742824629 |   1604546113 |   1604546113 |   1604546113 |   1604546113 |
sim_num_refs                                229234 |       229234 |       229234 |       229234 |       472397 |       472397 |       472397 |       472397 |      1051900 |      1051900 |      1051900 |      1051900 |      2170316 |      2170316 |      2170316 |      2170316 |      4784612 |      4784612 |      4784612 |      4784612 |      9854534 |      9854534 |      9854534 |      9854534 |     21481096 |     21481096 |     21481096 |     21481096 |     45705555 |     45705555 |     45705555 |     45705555 |     98506193 |     98506193 |     98506193 |     98506193 |    201658204 |    201658204 |    201658204 |    201658204 |    431808544 |    431808544 |    431808544 |    431808544 |
sim_elapsed_time                                 1 |            1 |           10 |            5 |            1 |            1 |           15 |            8 |            1 |            1 |           25 |           13 |            2 |            2 |           45 |           23 |            5 |            5 |           84 |           42 |            9 |           10 |          154 |           72 |           21 |           21 |          265 |          103 |           44 |           43 |          368 |          126 |           94 |           95 |          421 |          182 |          192 |          191 |          527 |          287 |          413 |          413 |          768 |          531 |
sim_inst_rate                          861143.0000 |  861143.0000 |   86114.3000 |  172228.6000 | 1753101.0000 | 1753101.0000 |  116873.4000 |  219137.6250 | 3961026.0000 | 3961026.0000 |  158441.0400 |  304694.3077 | 4030122.5000 | 4030122.5000 |  179116.5556 |  350445.4348 | 3596368.0000 | 3596368.0000 |  214069.5238 |  428139.0476 | 4063318.1111 | 3656986.3000 |  237466.6429 |  507914.7639 | 3835110.1429 | 3835110.1429 |  303914.3887 |  781915.6602 | 3827650.0455 | 3916665.1628 |  457653.8098 | 1336639.6984 | 3898491.5638 | 3857454.8105 |  870447.0475 | 2013506.6319 | 3868878.2760 | 3889134.1832 | 1409534.4004 | 2588239.1254 | 3885099.5472 | 3885099.5472 | 2089252.7513 | 3021744.0923 |
il1.accesses                                861143 |       861143 |       861143 |       861143 |      1753101 |      1753101 |      1753101 |      1753101 |      3961026 |      3961026 |      3961026 |      3961026 |      8060245 |      8060245 |      8060245 |      8060245 |     17981840 |     17981840 |     17981840 |     17981840 |     36569863 |     36569863 |     36569863 |     36569863 |     80537313 |     80537313 |     80537313 |     80537313 |    168416602 |    168416602 |    168416602 |    168416602 |    366458207 |    366458207 |    366458207 |    366458207 |    742824629 |    742824629 |    742824629 |    742824629 |   1604546113 |   1604546113 |   1604546113 |   1604546113 |
il1.hits                                    860473 |       860473 |       860568 |       860568 |      1752410 |      1752410 |      1752502 |      1752502 |      3960352 |      3960352 |      3960452 |      3960452 |      8059554 |      8059554 |      8059646 |      8059646 |     17981167 |     17981167 |     17981262 |     17981262 |     36569170 |     36569170 |     36569263 |     36569263 |     80536640 |     80536640 |     80536736 |     80536736 |    168414322 |    168414322 |    168415928 |    168415928 |    366454401 |    366454401 |    366457551 |    366457551 |    742817705 |    742817705 |    742823955 |    742823955 |   1604533043 |   1604533043 |   1604545457 |   1604545457 |
il1.misses                                     670 |          670 |          575 |          575 |          691 |          691 |          599 |          599 |          674 |          674 |          574 |          574 |          691 |          691 |          599 |          599 |          673 |          673 |          578 |          578 |          693 |          693 |          600 |          600 |          673 |          673 |          577 |          577 |         2280 |         2280 |          674 |          674 |         3806 |         3806 |          656 |          656 |         6924 |         6924 |          674 |          674 |        13070 |        13070 |          656 |          656 |
il1.replacements                               427 |          427 |          319 |          319 |          447 |          447 |          343 |          343 |          433 |          433 |          318 |          318 |          447 |          447 |          343 |          343 |          431 |          431 |          322 |          322 |          449 |          449 |          344 |          344 |          444 |          444 |          321 |          321 |         2055 |         2055 |          418 |          418 |         3583 |         3583 |          400 |          400 |         6699 |         6699 |          418 |          418 |        12847 |        12847 |          400 |          400 |
il1.writebacks                                   0 |            0 |            0 |            0 |            0 |            0 |            0 |            0 |            0 |            0 |            0 |            0 |            0 |            0 |            0 |            0 |            0 |            0 |            0 |            0 |            0 |            0 |            0 |            0 |            0 |            0 |            0 |            0 |            0 |            0 |            0 |            0 |            0 |            0 |            0 |            0 |            0 |            0 |            0 |            0 |            0 |            0 |            0 |            0 |
il1.invalidations                                0 |            0 |            0 |            0 |            0 |            0 |            0 |            0 |            0 |            0 |            0 |            0 |            0 |            0 |            0 |            0 |            0 |            0 |            0 |            0 |            0 |            0 |            0 |            0 |            0 |            0 |            0 |            0 |            0 |            0 |            0 |            0 |            0 |            0 |            0 |            0 |            0 |            0 |            0 |            0 |            0 |            0 |            0 |            0 |
il1.miss_rate                               0.0008 |       0.0008 |       0.0007 |       0.0007 |       0.0004 |       0.0004 |       0.0003 |       0.0003 |       0.0002 |       0.0002 |       0.0001 |       0.0001 |       0.0001 |       0.0001 |       0.0001 |       0.0001 |       0.0000 |       0.0000 |       0.0000 |       0.0000 |       0.0000 |       0.0000 |       0.0000 |       0.0000 |       0.0000 |       0.0000 |       0.0000 |       0.0000 |       0.0000 |       0.0000 |       0.0000 |       0.0000 |       0.0000 |       0.0000 |       0.0000 |       0.0000 |       0.0000 |       0.0000 |       0.0000 |       0.0000 |       0.0000 |       0.0000 |       0.0000 |       0.0000 |
il1.repl_rate                               0.0005 |       0.0005 |       0.0004 |       0.0004 |       0.0003 |       0.0003 |       0.0002 |       0.0002 |       0.0001 |       0.0001 |       0.0001 |       0.0001 |       0.0001 |       0.0001 |       0.0000 |       0.0000 |       0.0000 |       0.0000 |       0.0000 |       0.0000 |       0.0000 |       0.0000 |       0.0000 |       0.0000 |       0.0000 |       0.0000 |       0.0000 |       0.0000 |       0.0000 |       0.0000 |       0.0000 |       0.0000 |       0.0000 |       0.0000 |       0.0000 |       0.0000 |       0.0000 |       0.0000 |       0.0000 |       0.0000 |       0.0000 |       0.0000 |       0.0000 |       0.0000 |
il1.wb_rate                                 0.0000 |       0.0000 |       0.0000 |       0.0000 |       0.0000 |       0.0000 |       0.0000 |       0.0000 |       0.0000 |       0.0000 |       0.0000 |       0.0000 |       0.0000 |       0.0000 |       0.0000 |       0.0000 |       0.0000 |       0.0000 |       0.0000 |       0.0000 |       0.0000 |       0.0000 |       0.0000 |       0.0000 |       0.0000 |       0.0000 |       0.0000 |       0.0000 |       0.0000 |       0.0000 |       0.0000 |       0.0000 |       0.0000 |       0.0000 |       0.0000 |       0.0000 |       0.0000 |       0.0000 |       0.0000 |       0.0000 |       0.0000 |       0.0000 |       0.0000 |       0.0000 |
il1.inv_rate                                0.0000 |       0.0000 |       0.0000 |       0.0000 |       0.0000 |       0.0000 |       0.0000 |       0.0000 |       0.0000 |       0.0000 |       0.0000 |       0.0000 |       0.0000 |       0.0000 |       0.0000 |       0.0000 |       0.0000 |       0.0000 |       0.0000 |       0.0000 |       0.0000 |       0.0000 |       0.0000 |       0.0000 |       0.0000 |       0.0000 |       0.0000 |       0.0000 |       0.0000 |       0.0000 |       0.0000 |       0.0000 |       0.0000 |       0.0000 |       0.0000 |       0.0000 |       0.0000 |       0.0000 |       0.0000 |       0.0000 |       0.0000 |       0.0000 |       0.0000 |       0.0000 |
dl1.accesses                                245700 |       245700 |       245700 |       245700 |       505247 |       505247 |       505247 |       505247 |      1117518 |      1117518 |      1117518 |      1117518 |      2301470 |      2301470 |      2301470 |      2301470 |      5046838 |      5046838 |      5046838 |      5046838 |     10378904 |     10378904 |     10378904 |     10378904 |     22529754 |     22529754 |     22529754 |     22529754 |     47802789 |     47802789 |     47802789 |     47802789 |    102700579 |    102700579 |    102700579 |    102700579 |    210046894 |    210046894 |    210046894 |    210046894 |    448585842 |    448585842 |    448585842 |    448585842 |
dl1.hits                                    218088 |       218088 |       238742 |       238742 |       456071 |       456071 |       491015 |       491015 |       999279 |       999279 |      1082935 |      1082935 |      2086873 |      2086873 |      2229662 |      2229662 |      4538471 |      4538471 |      4877196 |      4877196 |      9449540 |      9449540 |     10027606 |     10027606 |     20350220 |     20350220 |     21721677 |     21721677 |     43462018 |     43462018 |     46004822 |     46004822 |     92734193 |     92734193 |     98681699 |     98681699 |    191515890 |    191515890 |    201810263 |    201810263 |    406388982 |    406388982 |    430416207 |    430416207 |
dl1.misses                                   27612 |        27612 |         6958 |         6958 |        49176 |        49176 |        14232 |        14232 |       118239 |       118239 |        34583 |        34583 |       214597 |       214597 |        71808 |        71808 |       508367 |       508367 |       169642 |       169642 |       929364 |       929364 |       351298 |       351298 |      2179534 |      2179534 |       808077 |       808077 |      4340771 |      4340771 |      1797967 |      1797967 |      9966386 |      9966386 |      4018880 |      4018880 |     18531004 |     18531004 |      8236631 |      8236631 |     42196860 |     42196860 |     18169635 |     18169635 |
dl1.replacements                             27356 |        27356 |         6702 |         6702 |        48920 |        48920 |        13976 |        13976 |       117983 |       117983 |        34327 |        34327 |       214341 |       214341 |        71552 |        71552 |       508111 |       508111 |       169386 |       169386 |       929108 |       929108 |       351042 |       351042 |      2179278 |      2179278 |       807821 |       807821 |      4340515 |      4340515 |      1797711 |      1797711 |      9966130 |      9966130 |      4018624 |      4018624 |     18530748 |     18530748 |      8236375 |      8236375 |     42196604 |     42196604 |     18169379 |     18169379 |
dl1.writebacks                               14839 |        14839 |         5058 |         5058 |        26765 |        26765 |         9807 |         9807 |        63104 |        63104 |        23384 |        23384 |       115650 |       115650 |        46405 |        46405 |       269505 |       269505 |       108962 |       108962 |       496269 |       496269 |       217374 |       217374 |      1148046 |      1148046 |       500359 |       500359 |      2288062 |      2288062 |      1065878 |      1065878 |      5199049 |      5199049 |      2394926 |      2394926 |      9705165 |      9705165 |      4785552 |      4785552 |     21904457 |     21904457 |     10627161 |     10627161 |
dl1.invalidations                                0 |            0 |            0 |            0 |            0 |            0 |            0 |            0 |            0 |            0 |            0 |            0 |            0 |            0 |            0 |            0 |            0 |            0 |            0 |            0 |            0 |            0 |            0 |            0 |            0 |            0 |            0 |            0 |            0 |            0 |            0 |            0 |            0 |            0 |            0 |            0 |            0 |            0 |            0 |            0 |            0 |            0 |            0 |            0 |
dl1.miss_rate                               0.1124 |       0.1124 |       0.0283 |       0.0283 |       0.0973 |       0.0973 |       0.0282 |       0.0282 |       0.1058 |       0.1058 |       0.0309 |       0.0309 |       0.0932 |       0.0932 |       0.0312 |       0.0312 |       0.1007 |       0.1007 |       0.0336 |       0.0336 |       0.0895 |       0.0895 |       0.0338 |       0.0338 |       0.0967 |       0.0967 |       0.0359 |       0.0359 |       0.0908 |       0.0908 |       0.0376 |       0.0376 |       0.0970 |       0.0970 |       0.0391 |       0.0391 |       0.0882 |       0.0882 |       0.0392 |       0.0392 |       0.0941 |       0.0941 |       0.0405 |       0.0405 |
dl1.repl_rate                               0.1113 |       0.1113 |       0.0273 |       0.0273 |       0.0968 |       0.0968 |       0.0277 |       0.0277 |       0.1056 |       0.1056 |       0.0307 |       0.0307 |       0.0931 |       0.0931 |       0.0311 |       0.0311 |       0.1007 |       0.1007 |       0.0336 |       0.0336 |       0.0895 |       0.0895 |       0.0338 |       0.0338 |       0.0967 |       0.0967 |       0.0359 |       0.0359 |       0.0908 |       0.0908 |       0.0376 |       0.0376 |       0.0970 |       0.0970 |       0.0391 |       0.0391 |       0.0882 |       0.0882 |       0.0392 |       0.0392 |       0.0941 |       0.0941 |       0.0405 |       0.0405 |
dl1.wb_rate                                 0.0604 |       0.0604 |       0.0206 |       0.0206 |       0.0530 |       0.0530 |       0.0194 |       0.0194 |       0.0565 |       0.0565 |       0.0209 |       0.0209 |       0.0503 |       0.0503 |       0.0202 |       0.0202 |       0.0534 |       0.0534 |       0.0216 |       0.0216 |       0.0478 |       0.0478 |       0.0209 |       0.0209 |       0.0510 |       0.0510 |       0.0222 |       0.0222 |       0.0479 |       0.0479 |       0.0223 |       0.0223 |       0.0506 |       0.0506 |       0.0233 |       0.0233 |       0.0462 |       0.0462 |       0.0228 |       0.0228 |       0.0488 |       0.0488 |       0.0237 |       0.0237 |
dl1.inv_rate                                0.0000 |       0.0000 |       0.0000 |       0.0000 |       0.0000 |       0.0000 |       0.0000 |       0.0000 |       0.0000 |       0.0000 |       0.0000 |       0.0000 |       0.0000 |       0.0000 |       0.0000 |       0.0000 |       0.0000 |       0.0000 |       0.0000 |       0.0000 |       0.0000 |       0.0000 |       0.0000 |       0.0000 |       0.0000 |       0.0000 |       0.0000 |       0.0000 |       0.0000 |       0.0000 |       0.0000 |       0.0000 |       0.0000 |       0.0000 |       0.0000 |       0.0000 |       0.0000 |       0.0000 |       0.0000 |       0.0000 |       0.0000 |       0.0000 |       0.0000 |       0.0000 |
dl2.accesses                                 43121 |        43121 |        12591 |        12591 |        76632 |        76632 |        24638 |        24638 |       182017 |       182017 |        58541 |        58541 |       330938 |       330938 |       118812 |       118812 |       778545 |       778545 |       279182 |       279182 |      1426326 |      1426326 |       569272 |       569272 |      3328253 |      3328253 |      1309013 |      1309013 |      6631113 |      6631113 |      2864519 |      2864519 |     15169241 |     15169241 |      6414462 |      6414462 |     28243093 |     28243093 |     13022857 |     13022857 |     64114387 |     64114387 |     28797452 |     28797452 |
dl2.hits                                     41144 |        41144 |        10632 |        10632 |        73611 |        73611 |        21636 |        21636 |       176969 |       176969 |        53511 |        53511 |       321773 |       321773 |       109665 |       109665 |       761205 |       761205 |       261860 |       261860 |      1392584 |      1392584 |       535549 |       535549 |      3261748 |      3261642 |      1242541 |      1205683 |      6388978 |      6223568 |      2697239 |      2342684 |     14194072 |     13987198 |      5232994 |      5111376 |     25377941 |     25355515 |     10136597 |      9894843 |     57292768 |     57291532 |     21977483 |     21494354 |
dl2.misses                                    1977 |         1977 |         1959 |         1959 |         3021 |         3021 |         3002 |         3002 |         5048 |         5048 |         5030 |         5030 |         9165 |         9165 |         9147 |         9147 |        17340 |        17340 |        17322 |        17322 |        33742 |        33742 |        33723 |        33723 |        66505 |        66611 |        66472 |       103330 |       242135 |       407545 |       167280 |       521835 |       975169 |      1182043 |      1181468 |      1303086 |      2865152 |      2887578 |      2886260 |      3128014 |      6821619 |      6822855 |      6819969 |      7303098 |
dl2.replacements                               165 |          165 |            0 |            0 |          184 |          184 |            0 |            0 |          166 |          166 |            0 |            0 |          184 |          184 |            0 |            0 |          168 |          168 |            0 |            0 |          184 |          184 |            0 |            0 |          192 |         1075 |            0 |        37794 |       142418 |       342009 |        36208 |       456299 |       844097 |      1116507 |      1050396 |      1237550 |      2734080 |      2822042 |      2755188 |      3062478 |      6690547 |      6757319 |      6688897 |      7237562 |
dl2.writebacks                                 114 |          114 |            0 |            0 |          131 |          131 |            0 |            0 |          114 |          114 |            0 |            0 |          131 |          131 |            0 |            0 |          115 |          115 |            0 |            0 |          131 |          131 |            0 |            0 |          136 |          698 |            0 |        37366 |        98606 |       264984 |        35741 |       357256 |       723090 |       755281 |       722136 |       876286 |      1804718 |      1804889 |      1771483 |      2045662 |      4165907 |      4166288 |      4132322 |      4647538 |
dl2.invalidations                                0 |            0 |            0 |            0 |            0 |            0 |            0 |            0 |            0 |            0 |            0 |            0 |            0 |            0 |            0 |            0 |            0 |            0 |            0 |            0 |            0 |            0 |            0 |            0 |            0 |            0 |            0 |            0 |            0 |            0 |            0 |            0 |            0 |            0 |            0 |            0 |            0 |            0 |            0 |            0 |            0 |            0 |            0 |            0 |
dl2.miss_rate                               0.0458 |       0.0458 |       0.1556 |       0.1556 |       0.0394 |       0.0394 |       0.1218 |       0.1218 |       0.0277 |       0.0277 |       0.0859 |       0.0859 |       0.0277 |       0.0277 |       0.0770 |       0.0770 |       0.0223 |       0.0223 |       0.0620 |       0.0620 |       0.0237 |       0.0237 |       0.0592 |       0.0592 |       0.0200 |       0.0200 |       0.0508 |       0.0789 |       0.0365 |       0.0615 |       0.0584 |       0.1822 |       0.0643 |       0.0779 |       0.1842 |       0.2031 |       0.1014 |       0.1022 |       0.2216 |       0.2402 |       0.1064 |       0.1064 |       0.2368 |       0.2536 |
dl2.repl_rate                               0.0038 |       0.0038 |       0.0000 |       0.0000 |       0.0024 |       0.0024 |       0.0000 |       0.0000 |       0.0009 |       0.0009 |       0.0000 |       0.0000 |       0.0006 |       0.0006 |       0.0000 |       0.0000 |       0.0002 |       0.0002 |       0.0000 |       0.0000 |       0.0001 |       0.0001 |       0.0000 |       0.0000 |       0.0001 |       0.0003 |       0.0000 |       0.0289 |       0.0215 |       0.0516 |       0.0126 |       0.1593 |       0.0556 |       0.0736 |       0.1638 |       0.1929 |       0.0968 |       0.0999 |       0.2116 |       0.2352 |       0.1044 |       0.1054 |       0.2323 |       0.2513 |
dl2.wb_rate                                 0.0026 |       0.0026 |       0.0000 |       0.0000 |       0.0017 |       0.0017 |       0.0000 |       0.0000 |       0.0006 |       0.0006 |       0.0000 |       0.0000 |       0.0004 |       0.0004 |       0.0000 |       0.0000 |       0.0001 |       0.0001 |       0.0000 |       0.0000 |       0.0001 |       0.0001 |       0.0000 |       0.0000 |       0.0000 |       0.0002 |       0.0000 |       0.0285 |       0.0149 |       0.0400 |       0.0125 |       0.1247 |       0.0477 |       0.0498 |       0.1126 |       0.1366 |       0.0639 |       0.0639 |       0.1360 |       0.1571 |       0.0650 |       0.0650 |       0.1435 |       0.1614 |
dl2.inv_rate                                0.0000 |       0.0000 |       0.0000 |       0.0000 |       0.0000 |       0.0000 |       0.0000 |       0.0000 |       0.0000 |       0.0000 |       0.0000 |       0.0000 |       0.0000 |       0.0000 |       0.0000 |       0.0000 |       0.0000 |       0.0000 |       0.0000 |       0.0000 |       0.0000 |       0.0000 |       0.0000 |       0.0000 |       0.0000 |       0.0000 |       0.0000 |       0.0000 |       0.0000 |       0.0000 |       0.0000 |       0.0000 |       0.0000 |       0.0000 |       0.0000 |       0.0000 |       0.0000 |       0.0000 |       0.0000 |       0.0000 |       0.0000 |       0.0000 |       0.0000 |       0.0000 |
itlb.accesses                               861143 |       861143 |       861143 |       861143 |      1753101 |      1753101 |      1753101 |      1753101 |      3961026 |      3961026 |      3961026 |      3961026 |      8060245 |      8060245 |      8060245 |      8060245 |     17981840 |     17981840 |     17981840 |     17981840 |     36569863 |     36569863 |     36569863 |     36569863 |     80537313 |     80537313 |     80537313 |     80537313 |    168416602 |    168416602 |    168416602 |    168416602 |    366458207 |    366458207 |    366458207 |    366458207 |    742824629 |    742824629 |    742824629 |    742824629 |   1604546113 |   1604546113 |   1604546113 |   1604546113 |
itlb.hits                                   861131 |       861131 |       861131 |       861131 |      1753089 |      1753089 |      1753089 |      1753089 |      3961014 |      3961014 |      3961014 |      3961014 |      8060233 |      8060233 |      8060233 |      8060233 |     17981828 |     17981828 |     17981828 |     17981828 |     36569851 |     36569851 |     36569851 |     36569851 |     80537301 |     80537301 |     80537301 |     80537301 |    168416590 |    168416590 |    168416590 |    168416590 |    366458195 |    366458195 |    366458195 |    366458195 |    742824617 |    742824617 |    742824617 |    742824617 |   1604546101 |   1604546101 |   1604546101 |   1604546101 |
itlb.misses                                     12 |           12 |           12 |           12 |           12 |           12 |           12 |           12 |           12 |           12 |           12 |           12 |           12 |           12 |           12 |           12 |           12 |           12 |           12 |           12 |           12 |           12 |           12 |           12 |           12 |           12 |           12 |           12 |           12 |           12 |           12 |           12 |           12 |           12 |           12 |           12 |           12 |           12 |           12 |           12 |           12 |           12 |           12 |           12 |
itlb.replacements                                0 |            0 |            0 |            0 |            0 |            0 |            0 |            0 |            0 |            0 |            0 |            0 |            0 |            0 |            0 |            0 |            0 |            0 |            0 |            0 |            0 |            0 |            0 |            0 |            0 |            0 |            0 |            0 |            0 |            0 |            0 |            0 |            0 |            0 |            0 |            0 |            0 |            0 |            0 |            0 |            0 |            0 |            0 |            0 |
itlb.writebacks                                  0 |            0 |            0 |            0 |            0 |            0 |            0 |            0 |            0 |            0 |            0 |            0 |            0 |            0 |            0 |            0 |            0 |            0 |            0 |            0 |            0 |            0 |            0 |            0 |            0 |            0 |            0 |            0 |            0 |            0 |            0 |            0 |            0 |            0 |            0 |            0 |            0 |            0 |            0 |            0 |            0 |            0 |            0 |            0 |
itlb.invalidations                               0 |            0 |            0 |            0 |            0 |            0 |            0 |            0 |            0 |            0 |            0 |            0 |            0 |            0 |            0 |            0 |            0 |            0 |            0 |            0 |            0 |            0 |            0 |            0 |            0 |            0 |            0 |            0 |            0 |            0 |            0 |            0 |            0 |            0 |            0 |            0 |            0 |            0 |            0 |            0 |            0 |            0 |            0 |            0 |
itlb.miss_rate                              0.0000 |       0.0000 |       0.0000 |       0.0000 |       0.0000 |       0.0000 |       0.0000 |       0.0000 |       0.0000 |       0.0000 |       0.0000 |       0.0000 |       0.0000 |       0.0000 |       0.0000 |       0.0000 |       0.0000 |       0.0000 |       0.0000 |       0.0000 |       0.0000 |       0.0000 |       0.0000 |       0.0000 |       0.0000 |       0.0000 |       0.0000 |       0.0000 |       0.0000 |       0.0000 |       0.0000 |       0.0000 |       0.0000 |       0.0000 |       0.0000 |       0.0000 |       0.0000 |       0.0000 |       0.0000 |       0.0000 |       0.0000 |       0.0000 |       0.0000 |       0.0000 |
itlb.repl_rate                              0.0000 |       0.0000 |       0.0000 |       0.0000 |       0.0000 |       0.0000 |       0.0000 |       0.0000 |       0.0000 |       0.0000 |       0.0000 |       0.0000 |       0.0000 |       0.0000 |       0.0000 |       0.0000 |       0.0000 |       0.0000 |       0.0000 |       0.0000 |       0.0000 |       0.0000 |       0.0000 |       0.0000 |       0.0000 |       0.0000 |       0.0000 |       0.0000 |       0.0000 |       0.0000 |       0.0000 |       0.0000 |       0.0000 |       0.0000 |       0.0000 |       0.0000 |       0.0000 |       0.0000 |       0.0000 |       0.0000 |       0.0000 |       0.0000 |       0.0000 |       0.0000 |
itlb.wb_rate                                0.0000 |       0.0000 |       0.0000 |       0.0000 |       0.0000 |       0.0000 |       0.0000 |       0.0000 |       0.0000 |       0.0000 |       0.0000 |       0.0000 |       0.0000 |       0.0000 |       0.0000 |       0.0000 |       0.0000 |       0.0000 |       0.0000 |       0.0000 |       0.0000 |       0.0000 |       0.0000 |       0.0000 |       0.0000 |       0.0000 |       0.0000 |       0.0000 |       0.0000 |       0.0000 |       0.0000 |       0.0000 |       0.0000 |       0.0000 |       0.0000 |       0.0000 |       0.0000 |       0.0000 |       0.0000 |       0.0000 |       0.0000 |       0.0000 |       0.0000 |       0.0000 |
itlb.inv_rate                               0.0000 |       0.0000 |       0.0000 |       0.0000 |       0.0000 |       0.0000 |       0.0000 |       0.0000 |       0.0000 |       0.0000 |       0.0000 |       0.0000 |       0.0000 |       0.0000 |       0.0000 |       0.0000 |       0.0000 |       0.0000 |       0.0000 |       0.0000 |       0.0000 |       0.0000 |       0.0000 |       0.0000 |       0.0000 |       0.0000 |       0.0000 |       0.0000 |       0.0000 |       0.0000 |       0.0000 |       0.0000 |       0.0000 |       0.0000 |       0.0000 |       0.0000 |       0.0000 |       0.0000 |       0.0000 |       0.0000 |       0.0000 |       0.0000 |       0.0000 |       0.0000 |
dtlb.accesses                               245700 |       245700 |       245700 |       245700 |       505247 |       505247 |       505247 |       505247 |      1117518 |      1117518 |      1117518 |      1117518 |      2301470 |      2301470 |      2301470 |      2301470 |      5046838 |      5046838 |      5046838 |      5046838 |     10378904 |     10378904 |     10378904 |     10378904 |     22529754 |     22529754 |     22529754 |     22529754 |     47802789 |     47802789 |     47802789 |     47802789 |    102700579 |    102700579 |    102700579 |    102700579 |    210046894 |    210046894 |    210046894 |    210046894 |    448585842 |    448585842 |    448585842 |    448585842 |
dtlb.hits                                   245684 |       245684 |       245684 |       245684 |       505223 |       505223 |       505223 |       505223 |      1117478 |      1117478 |      1117478 |      1117478 |      2301398 |      2301398 |      2301398 |      2301398 |      5046653 |      5046653 |      5046653 |      5046653 |     10376478 |     10376478 |     10376478 |     10376478 |     22524340 |     22524340 |     22524340 |     22524340 |     47790037 |     47790037 |     47790037 |     47790037 |    102673039 |    102673039 |    102673039 |    102673039 |    209987736 |    209987736 |    209987736 |    209987736 |    448459328 |    448459328 |    448459328 |    448459328 |
dtlb.misses                                     16 |           16 |           16 |           16 |           24 |           24 |           24 |           24 |           40 |           40 |           40 |           40 |           72 |           72 |           72 |           72 |          185 |          185 |          185 |          185 |         2426 |         2426 |         2426 |         2426 |         5414 |         5414 |         5414 |         5414 |        12752 |        12752 |        12752 |        12752 |        27540 |        27540 |        27540 |        27540 |        59158 |        59158 |        59158 |        59158 |       126514 |       126514 |       126514 |       126514 |
dtlb.replacements                                0 |            0 |            0 |            0 |            0 |            0 |            0 |            0 |            0 |            0 |            0 |            0 |            0 |            0 |            0 |            0 |           57 |           57 |           57 |           57 |         2298 |         2298 |         2298 |         2298 |         5286 |         5286 |         5286 |         5286 |        12624 |        12624 |        12624 |        12624 |        27412 |        27412 |        27412 |        27412 |        59030 |        59030 |        59030 |        59030 |       126386 |       126386 |       126386 |       126386 |
dtlb.writebacks                                  0 |            0 |            0 |            0 |            0 |            0 |            0 |            0 |            0 |            0 |            0 |            0 |            0 |            0 |            0 |            0 |           37 |           37 |           37 |           37 |         1333 |         1333 |         1333 |         1333 |         3029 |         3029 |         3029 |         3029 |         7088 |         7088 |         7088 |         7088 |        15254 |        15254 |        15254 |        15254 |        32613 |        32613 |        32613 |        32613 |        69382 |        69382 |        69382 |        69382 |
dtlb.invalidations                               0 |            0 |            0 |            0 |            0 |            0 |            0 |            0 |            0 |            0 |            0 |            0 |            0 |            0 |            0 |            0 |            0 |            0 |            0 |            0 |            0 |            0 |            0 |            0 |            0 |            0 |            0 |            0 |            0 |            0 |            0 |            0 |            0 |            0 |            0 |            0 |            0 |            0 |            0 |            0 |            0 |            0 |            0 |            0 |
dtlb.miss_rate                              0.0001 |       0.0001 |       0.0001 |       0.0001 |       0.0000 |       0.0000 |       0.0000 |       0.0000 |       0.0000 |       0.0000 |       0.0000 |       0.0000 |       0.0000 |       0.0000 |       0.0000 |       0.0000 |       0.0000 |       0.0000 |       0.0000 |       0.0000 |       0.0002 |       0.0002 |       0.0002 |       0.0002 |       0.0002 |       0.0002 |       0.0002 |       0.0002 |       0.0003 |       0.0003 |       0.0003 |       0.0003 |       0.0003 |       0.0003 |       0.0003 |       0.0003 |       0.0003 |       0.0003 |       0.0003 |       0.0003 |       0.0003 |       0.0003 |       0.0003 |       0.0003 |
dtlb.repl_rate                              0.0000 |       0.0000 |       0.0000 |       0.0000 |       0.0000 |       0.0000 |       0.0000 |       0.0000 |       0.0000 |       0.0000 |       0.0000 |       0.0000 |       0.0000 |       0.0000 |       0.0000 |       0.0000 |       0.0000 |       0.0000 |       0.0000 |       0.0000 |       0.0002 |       0.0002 |       0.0002 |       0.0002 |       0.0002 |       0.0002 |       0.0002 |       0.0002 |       0.0003 |       0.0003 |       0.0003 |       0.0003 |       0.0003 |       0.0003 |       0.0003 |       0.0003 |       0.0003 |       0.0003 |       0.0003 |       0.0003 |       0.0003 |       0.0003 |       0.0003 |       0.0003 |
dtlb.wb_rate                                0.0000 |       0.0000 |       0.0000 |       0.0000 |       0.0000 |       0.0000 |       0.0000 |       0.0000 |       0.0000 |       0.0000 |       0.0000 |       0.0000 |       0.0000 |       0.0000 |       0.0000 |       0.0000 |       0.0000 |       0.0000 |       0.0000 |       0.0000 |       0.0001 |       0.0001 |       0.0001 |       0.0001 |       0.0001 |       0.0001 |       0.0001 |       0.0001 |       0.0001 |       0.0001 |       0.0001 |       0.0001 |       0.0001 |       0.0001 |       0.0001 |       0.0001 |       0.0002 |       0.0002 |       0.0002 |       0.0002 |       0.0002 |       0.0002 |       0.0002 |       0.0002 |
dtlb.inv_rate                               0.0000 |       0.0000 |       0.0000 |       0.0000 |       0.0000 |       0.0000 |       0.0000 |       0.0000 |       0.0000 |       0.0000 |       0.0000 |       0.0000 |       0.0000 |       0.0000 |       0.0000 |       0.0000 |       0.0000 |       0.0000 |       0.0000 |       0.0000 |       0.0000 |       0.0000 |       0.0000 |       0.0000 |       0.0000 |       0.0000 |       0.0000 |       0.0000 |       0.0000 |       0.0000 |       0.0000 |       0.0000 |       0.0000 |       0.0000 |       0.0000 |       0.0000 |       0.0000 |       0.0000 |       0.0000 |       0.0000 |       0.0000 |       0.0000 |       0.0000 |       0.0000 |
ld_text_base                            0x00400000 |   0x00400000 |   0x00400000 |   0x00400000 |   0x00400000 |   0x00400000 |   0x00400000 |   0x00400000 |   0x00400000 |   0x00400000 |   0x00400000 |   0x00400000 |   0x00400000 |   0x00400000 |   0x00400000 |   0x00400000 |   0x00400000 |   0x00400000 |   0x00400000 |   0x00400000 |   0x00400000 |   0x00400000 |   0x00400000 |   0x00400000 |   0x00400000 |   0x00400000 |   0x00400000 |   0x00400000 |   0x00400000 |   0x00400000 |   0x00400000 |   0x00400000 |   0x00400000 |   0x00400000 |   0x00400000 |   0x00400000 |   0x00400000 |   0x00400000 |   0x00400000 |   0x00400000 |   0x00400000 |   0x00400000 |   0x00400000 |   0x00400000 |
ld_text_size                                 87648 |        87648 |        87648 |        87648 |        87680 |        87680 |        87680 |        87680 |        87696 |        87696 |        87696 |        87696 |        87712 |        87712 |        87712 |        87712 |        87712 |        87712 |        87712 |        87712 |        87712 |        87712 |        87712 |        87712 |        87712 |        87712 |        87712 |        87712 |        87712 |        87712 |        87712 |        87712 |        87712 |        87712 |        87712 |        87712 |        87712 |        87712 |        87712 |        87712 |        87712 |        87712 |        87712 |        87712 |
ld_data_base                            0x10000000 |   0x10000000 |   0x10000000 |   0x10000000 |   0x10000000 |   0x10000000 |   0x10000000 |   0x10000000 |   0x10000000 |   0x10000000 |   0x10000000 |   0x10000000 |   0x10000000 |   0x10000000 |   0x10000000 |   0x10000000 |   0x10000000 |   0x10000000 |   0x10000000 |   0x10000000 |   0x10000000 |   0x10000000 |   0x10000000 |   0x10000000 |   0x10000000 |   0x10000000 |   0x10000000 |   0x10000000 |   0x10000000 |   0x10000000 |   0x10000000 |   0x10000000 |   0x10000000 |   0x10000000 |   0x10000000 |   0x10000000 |   0x10000000 |   0x10000000 |   0x10000000 |   0x10000000 |   0x10000000 |   0x10000000 |   0x10000000 |   0x10000000 |
ld_data_size                                  8192 |         8192 |         8192 |         8192 |         8192 |         8192 |         8192 |         8192 |         8192 |         8192 |         8192 |         8192 |         8192 |         8192 |         8192 |         8192 |         8192 |         8192 |         8192 |         8192 |         8192 |         8192 |         8192 |         8192 |         8192 |         8192 |         8192 |         8192 |         8192 |         8192 |         8192 |         8192 |         8192 |         8192 |         8192 |         8192 |         8192 |         8192 |         8192 |         8192 |         8192 |         8192 |         8192 |         8192 |
ld_stack_base                           0x7fffc000 |   0x7fffc000 |   0x7fffc000 |   0x7fffc000 |   0x7fffc000 |   0x7fffc000 |   0x7fffc000 |   0x7fffc000 |   0x7fffc000 |   0x7fffc000 |   0x7fffc000 |   0x7fffc000 |   0x7fffc000 |   0x7fffc000 |   0x7fffc000 |   0x7fffc000 |   0x7fffc000 |   0x7fffc000 |   0x7fffc000 |   0x7fffc000 |   0x7fffc000 |   0x7fffc000 |   0x7fffc000 |   0x7fffc000 |   0x7fffc000 |   0x7fffc000 |   0x7fffc000 |   0x7fffc000 |   0x7fffc000 |   0x7fffc000 |   0x7fffc000 |   0x7fffc000 |   0x7fffc000 |   0x7fffc000 |   0x7fffc000 |   0x7fffc000 |   0x7fffc000 |   0x7fffc000 |   0x7fffc000 |   0x7fffc000 |   0x7fffc000 |   0x7fffc000 |   0x7fffc000 |   0x7fffc000 |
ld_stack_size                                16384 |        16384 |        16384 |        16384 |        16384 |        16384 |        16384 |        16384 |        16384 |        16384 |        16384 |        16384 |        16384 |        16384 |        16384 |        16384 |        16384 |        16384 |        16384 |        16384 |        16384 |        16384 |        16384 |        16384 |        16384 |        16384 |        16384 |        16384 |        16384 |        16384 |        16384 |        16384 |        16384 |        16384 |        16384 |        16384 |        16384 |        16384 |        16384 |        16384 |        16384 |        16384 |        16384 |        16384 |
ld_prog_entry                           0x00400140 |   0x00400140 |   0x00400140 |   0x00400140 |   0x00400140 |   0x00400140 |   0x00400140 |   0x00400140 |   0x00400140 |   0x00400140 |   0x00400140 |   0x00400140 |   0x00400140 |   0x00400140 |   0x00400140 |   0x00400140 |   0x00400140 |   0x00400140 |   0x00400140 |   0x00400140 |   0x00400140 |   0x00400140 |   0x00400140 |   0x00400140 |   0x00400140 |   0x00400140 |   0x00400140 |   0x00400140 |   0x00400140 |   0x00400140 |   0x00400140 |   0x00400140 |   0x00400140 |   0x00400140 |   0x00400140 |   0x00400140 |   0x00400140 |   0x00400140 |   0x00400140 |   0x00400140 |   0x00400140 |   0x00400140 |   0x00400140 |   0x00400140 |
ld_environ_base                         0x7fff8000 |   0x7fff8000 |   0x7fff8000 |   0x7fff8000 |   0x7fff8000 |   0x7fff8000 |   0x7fff8000 |   0x7fff8000 |   0x7fff8000 |   0x7fff8000 |   0x7fff8000 |   0x7fff8000 |   0x7fff8000 |   0x7fff8000 |   0x7fff8000 |   0x7fff8000 |   0x7fff8000 |   0x7fff8000 |   0x7fff8000 |   0x7fff8000 |   0x7fff8000 |   0x7fff8000 |   0x7fff8000 |   0x7fff8000 |   0x7fff8000 |   0x7fff8000 |   0x7fff8000 |   0x7fff8000 |   0x7fff8000 |   0x7fff8000 |   0x7fff8000 |   0x7fff8000 |   0x7fff8000 |   0x7fff8000 |   0x7fff8000 |   0x7fff8000 |   0x7fff8000 |   0x7fff8000 |   0x7fff8000 |   0x7fff8000 |   0x7fff8000 |   0x7fff8000 |   0x7fff8000 |   0x7fff8000 |
ld_target_big_endian                             0 |            0 |            0 |            0 |            0 |            0 |            0 |            0 |            0 |            0 |            0 |            0 |            0 |            0 |            0 |            0 |            0 |            0 |            0 |            0 |            0 |            0 |            0 |            0 |            0 |            0 |            0 |            0 |            0 |            0 |            0 |            0 |            0 |            0 |            0 |            0 |            0 |            0 |            0 |            0 |            0 |            0 |            0 |            0 |
mem.page_count                                  38 |           38 |           38 |           38 |           46 |           46 |           46 |           46 |           62 |           62 |           62 |           62 |           94 |           94 |           94 |           94 |          158 |          158 |          158 |          158 |          286 |          286 |          286 |          286 |          542 |          542 |          542 |          542 |         1060 |         1060 |         1060 |         1060 |         2084 |         2084 |         2084 |         2084 |         4138 |         4138 |         4138 |         4138 |         8246 |         8246 |         8246 |         8246 |
mem.page_mem                                  152k |         152k |         152k |         152k |         184k |         184k |         184k |         184k |         248k |         248k |         248k |         248k |         376k |         376k |         376k |         376k |         632k |         632k |         632k |         632k |        1144k |        1144k |        1144k |        1144k |        2168k |        2168k |        2168k |        2168k |        4240k |        4240k |        4240k |        4240k |        8336k |        8336k |        8336k |        8336k |       16552k |       16552k |       16552k |       16552k |       32984k |       32984k |       32984k |       32984k |
mem.ptab_misses                                 38 |           38 |           38 |           38 |           46 |           46 |           46 |           46 |           62 |           62 |           62 |           62 |           94 |           94 |           94 |           94 |          158 |          158 |          158 |          158 |          286 |          286 |          286 |          286 |          542 |          542 |          542 |          542 |         1078 |         1078 |         1078 |         1078 |        99728 |        99728 |        99728 |        99728 |       101698 |       101698 |       101698 |       101698 |       115182 |       115182 |       115182 |       115182 |
mem.ptab_accesses                          4476484 |      4476484 |      4476484 |      4476484 |      8563602 |      8563602 |      8563602 |      8563602 |     18619940 |     18619940 |     18619940 |     18619940 |     37384816 |     37384816 |     37384816 |     37384816 |     82561932 |     82561932 |     82561932 |     82561932 |    167578156 |    167578156 |    167578156 |    167578156 |    367749656 |    367749656 |    367749656 |    367749656 |    769812882 |    769812882 |    769812882 |    769812882 |   1671774882 |   1671774882 |   1671774882 |   1671774882 |   3391933200 |   3391933200 |   3391933200 |   3391933200 |   7315897032 |   7315897032 |   7315897032 |   7315897032 |
mem.ptab_miss_rate                          0.0000 |       0.0000 |       0.0000 |       0.0000 |       0.0000 |       0.0000 |       0.0000 |       0.0000 |       0.0000 |       0.0000 |       0.0000 |       0.0000 |       0.0000 |       0.0000 |       0.0000 |       0.0000 |       0.0000 |       0.0000 |       0.0000 |       0.0000 |       0.0000 |       0.0000 |       0.0000 |       0.0000 |       0.0000 |       0.0000 |       0.0000 |       0.0000 |       0.0000 |       0.0000 |       0.0000 |       0.0000 |       0.0001 |       0.0001 |       0.0001 |       0.0001 |       0.0000 |       0.0000 |       0.0000 |       0.0000 |       0.0000 |       0.0000 |       0.0000 |       0.0000 |
-------------------------------------------------------------------------------------------------
sim-bpred                                     4096 |         4096 |         4096 |         4096 |         4096 |         4096 |         4096 |         8192 |         8192 |         8192 |         8192 |         8192 |         8192 |         8192 |        16384 |        16384 |        16384 |        16384 |        16384 |        16384 |        16384 |        32768 |        32768 |        32768 |        32768 |        32768 |        32768 |        32768 |        65536 |        65536 |        65536 |        65536 |        65536 |        65536 |        65536 |       131072 |       131072 |       131072 |       131072 |       131072 |       131072 |       131072 |       262144 |       262144 |       262144 |       262144 |       262144 |       262144 |       262144 |       524288 |       524288 |       524288 |       524288 |       524288 |       524288 |       524288 |      1048576 |      1048576 |      1048576 |      1048576 |      1048576 |      1048576 |      1048576 |      2097152 |      2097152 |      2097152 |      2097152 |      2097152 |      2097152 |      2097152 |      4194304 |      4194304 |      4194304 |      4194304 |      4194304 |      4194304 |      4194304 |
-bpred bimod -bpred:bimod 512
-bpred bimod -bpred:bimod 1024
-bpred bimod -bpred:bimod 2048
-bpred 2lev -bpred:2lev 1 512 10 1
-bpred 2lev -bpred:2lev 1 1024 10 1
-bpred 2lev -bpred:2lev 1 2048 10 1
-bpred 2lev -bpred:2lev 1 4096 10 1
-------------------------------------------------------------------------------------------------
sim_num_insn                                861143 |       861143 |       861143 |       861143 |       861143 |       861143 |       861143 |      1753101 |      1753101 |      1753101 |      1753101 |      1753101 |      1753101 |      1753101 |      3961026 |      3961026 |      3961026 |      3961026 |      3961026 |      3961026 |      3961026 |      8060245 |      8060245 |      8060245 |      8060245 |      8060245 |      8060245 |      8060245 |     17981840 |     17981840 |     17981840 |     17981840 |     17981840 |     17981840 |     17981840 |     36569863 |     36569863 |     36569863 |     36569863 |     36569863 |     36569863 |     36569863 |     80537313 |     80537313 |     80537313 |     80537313 |     80537313 |     80537313 |     80537313 |    168416602 |    168416602 |    168416602 |    168416602 |    168416602 |    168416602 |    168416602 |    366458207 |    366458207 |    366458207 |    366458207 |    366458207 |    366458207 |    366458207 |    742824629 |    742824629 |    742824629 |    742824629 |    742824629 |    742824629 |    742824629 |   1604546113 |   1604546113 |   1604546113 |   1604546113 |   1604546113 |   1604546113 |   1604546113 |
sim_num_refs                                229234 |       229234 |       229234 |       229234 |       229234 |       229234 |       229234 |       472397 |       472397 |       472397 |       472397 |       472397 |       472397 |       472397 |      1051900 |      1051900 |      1051900 |      1051900 |      1051900 |      1051900 |      1051900 |      2170316 |      2170316 |      2170316 |      2170316 |      2170316 |      2170316 |      2170316 |      4784612 |      4784612 |      4784612 |      4784612 |      4784612 |      4784612 |      4784612 |      9854534 |      9854534 |      9854534 |      9854534 |      9854534 |      9854534 |      9854534 |     21481096 |     21481096 |     21481096 |     21481096 |     21481096 |     21481096 |     21481096 |     45705555 |     45705555 |     45705555 |     45705555 |     45705555 |     45705555 |     45705555 |     98506193 |     98506193 |     98506193 |     98506193 |     98506193 |     98506193 |     98506193 |    201658204 |    201658204 |    201658204 |    201658204 |    201658204 |    201658204 |    201658204 |    431808544 |    431808544 |    431808544 |    431808544 |    431808544 |    431808544 |    431808544 |
sim_elapsed_time                                 1 |            1 |            1 |            1 |            1 |            1 |            1 |            1 |            1 |            1 |            1 |            1 |            1 |            1 |            1 |            1 |            1 |            1 |            1 |            1 |            1 |            1 |            1 |            1 |            1 |            1 |            1 |            1 |            2 |            2 |            2 |            2 |            2 |            1 |            1 |            4 |            4 |            4 |            4 |            4 |            3 |            3 |            8 |            9 |            8 |            9 |            8 |            9 |            9 |           18 |           18 |           17 |           18 |           18 |           19 |           17 |           38 |           38 |           38 |           39 |           39 |           39 |           39 |           78 |           78 |           79 |           79 |           79 |           79 |           79 |          167 |          168 |          168 |          171 |          170 |          170 |          172 |
sim_inst_rate                          861143.0000 |  861143.0000 |  861143.0000 |  861143.0000 |  861143.0000 |  861143.0000 |  861143.0000 | 1753101.0000 | 1753101.0000 | 1753101.0000 | 1753101.0000 | 1753101.0000 | 1753101.0000 | 1753101.0000 | 3961026.0000 | 3961026.0000 | 3961026.0000 | 3961026.0000 | 3961026.0000 | 3961026.0000 | 3961026.0000 | 8060245.0000 | 8060245.0000 | 8060245.0000 | 8060245.0000 | 8060245.0000 | 8060245.0000 | 8060245.0000 | 8990920.0000 | 8990920.0000 | 8990920.0000 | 8990920.0000 | 8990920.0000 |17981840.0000 |17981840.0000 | 9142465.7500 | 9142465.7500 | 9142465.7500 | 9142465.7500 | 9142465.7500 |12189954.3333 |12189954.3333 |10067164.1250 | 8948590.3333 |10067164.1250 | 8948590.3333 |10067164.1250 | 8948590.3333 | 8948590.3333 | 9356477.8889 | 9356477.8889 | 9906858.9412 | 9356477.8889 | 9356477.8889 | 8864031.6842 | 9906858.9412 | 9643637.0263 | 9643637.0263 | 9643637.0263 | 9396364.2821 | 9396364.2821 | 9396364.2821 | 9396364.2821 | 9523392.6795 | 9523392.6795 | 9402843.4051 | 9402843.4051 | 9402843.4051 | 9402843.4051 | 9402843.4051 | 9608060.5569 | 9550869.7202 | 9550869.7202 | 9383310.6023 | 9438506.5471 | 9438506.5471 | 9328756.4709 |
sim_num_branches                            113163 |       113163 |       113163 |       113163 |       113163 |       113163 |       113163 |       235988 |       235988 |       235988 |       235988 |       235988 |       235988 |       235988 |       515076 |       515076 |       515076 |       515076 |       515076 |       515076 |       515076 |      1071263 |      1071263 |      1071263 |      1071263 |      1071263 |      1071263 |      1071263 |      2319550 |      2319550 |      2319550 |      2319550 |      2319550 |      2319550 |      2319550 |      4812067 |      4812067 |      4812067 |      4812067 |      4812067 |      4812067 |      4812067 |     10322627 |     10322627 |     10322627 |     10322627 |     10322627 |     10322627 |     10322627 |     21936956 |     21936956 |     21936956 |     21936956 |     21936956 |     21936956 |     21936956 |     46672709 |     46672709 |     46672709 |     46672709 |     46672709 |     46672709 |     46672709 |     96146664 |     96146664 |     96146664 |     96146664 |     96146664 |     96146664 |     96146664 |    203539926 |    203539926 |    203539926 |    203539926 |    203539926 |    203539926 |    203539926 |
sim_IPB                                     7.6098 |       7.6098 |       7.6098 |       7.6098 |       7.6098 |       7.6098 |       7.6098 |       7.4288 |       7.4288 |       7.4288 |       7.4288 |       7.4288 |       7.4288 |       7.4288 |       7.6902 |       7.6902 |       7.6902 |       7.6902 |       7.6902 |       7.6902 |       7.6902 |       7.5241 |       7.5241 |       7.5241 |       7.5241 |       7.5241 |       7.5241 |       7.5241 |       7.7523 |       7.7523 |       7.7523 |       7.7523 |       7.7523 |       7.7523 |       7.7523 |       7.5996 |       7.5996 |       7.5996 |       7.5996 |       7.5996 |       7.5996 |       7.5996 |       7.8020 |       7.8020 |       7.8020 |       7.8020 |       7.8020 |       7.8020 |       7.8020 |       7.6773 |       7.6773 |       7.6773 |       7.6773 |       7.6773 |       7.6773 |       7.6773 |       7.8517 |       7.8517 |       7.8517 |       7.8517 |       7.8517 |       7.8517 |       7.8517 |       7.7260 |       7.7260 |       7.7260 |       7.7260 |       7.7260 |       7.7260 |       7.7260 |       7.8832 |       7.8832 |       7.8832 |       7.8832 |       7.8832 |       7.8832 |       7.8832 |
bpred_bimod.lookups                         113163 |       113163 |       113163 |xxxxxxxxxxxxx |xxxxxxxxxxxxx |xxxxxxxxxxxxx |xxxxxxxxxxxxx |       235988 |       235988 |       235988 |xxxxxxxxxxxxx |xxxxxxxxxxxxx |xxxxxxxxxxxxx |xxxxxxxxxxxxx |       515076 |       515076 |       515076 |xxxxxxxxxxxxx |xxxxxxxxxxxxx |xxxxxxxxxxxxx |xxxxxxxxxxxxx |      1071263 |      1071263 |      1071263 |xxxxxxxxxxxxx |xxxxxxxxxxxxx |xxxxxxxxxxxxx |xxxxxxxxxxxxx |      2319550 |      2319550 |      2319550 |xxxxxxxxxxxxx |xxxxxxxxxxxxx |xxxxxxxxxxxxx |xxxxxxxxxxxxx |      4812067 |      4812067 |      4812067 |xxxxxxxxxxxxx |xxxxxxxxxxxxx |xxxxxxxxxxxxx |xxxxxxxxxxxxx |     10322627 |     10322627 |     10322627 |xxxxxxxxxxxxx |xxxxxxxxxxxxx |xxxxxxxxxxxxx |xxxxxxxxxxxxx |     21936956 |     21936956 |     21936956 |xxxxxxxxxxxxx |xxxxxxxxxxxxx |xxxxxxxxxxxxx |xxxxxxxxxxxxx |     46672709 |     46672709 |     46672709 |xxxxxxxxxxxxx |xxxxxxxxxxxxx |xxxxxxxxxxxxx |xxxxxxxxxxxxx |     96146664 |     96146664 |     96146664 |xxxxxxxxxxxxx |xxxxxxxxxxxxx |xxxxxxxxxxxxx |xxxxxxxxxxxxx |    203539926 |    203539926 |    203539926 |
bpred_bimod.updates                         113163 |       113163 |       113163 |xxxxxxxxxxxxx |xxxxxxxxxxxxx |xxxxxxxxxxxxx |xxxxxxxxxxxxx |       235988 |       235988 |       235988 |xxxxxxxxxxxxx |xxxxxxxxxxxxx |xxxxxxxxxxxxx |xxxxxxxxxxxxx |       515076 |       515076 |       515076 |xxxxxxxxxxxxx |xxxxxxxxxxxxx |xxxxxxxxxxxxx |xxxxxxxxxxxxx |      1071263 |      1071263 |      1071263 |xxxxxxxxxxxxx |xxxxxxxxxxxxx |xxxxxxxxxxxxx |xxxxxxxxxxxxx |      2319550 |      2319550 |      2319550 |xxxxxxxxxxxxx |xxxxxxxxxxxxx |xxxxxxxxxxxxx |xxxxxxxxxxxxx |      4812067 |      4812067 |      4812067 |xxxxxxxxxxxxx |xxxxxxxxxxxxx |xxxxxxxxxxxxx |xxxxxxxxxxxxx |     10322627 |     10322627 |     10322627 |xxxxxxxxxxxxx |xxxxxxxxxxxxx |xxxxxxxxxxxxx |xxxxxxxxxxxxx |     21936956 |     21936956 |     21936956 |xxxxxxxxxxxxx |xxxxxxxxxxxxx |xxxxxxxxxxxxx |xxxxxxxxxxxxx |     46672709 |     46672709 |     46672709 |xxxxxxxxxxxxx |xxxxxxxxxxxxx |xxxxxxxxxxxxx |xxxxxxxxxxxxx |     96146664 |     96146664 |     96146664 |xxxxxxxxxxxxx |xxxxxxxxxxxxx |xxxxxxxxxxxxx |xxxxxxxxxxxxx |    203539926 |    203539926 |    203539926 |
bpred_bimod.addr_hits                        87534 |        87548 |        87550 |xxxxxxxxxxxxx |xxxxxxxxxxxxx |xxxxxxxxxxxxx |xxxxxxxxxxxxx |       184253 |       184260 |       184259 |xxxxxxxxxxxxx |xxxxxxxxxxxxx |xxxxxxxxxxxxx |xxxxxxxxxxxxx |       396767 |       396792 |       396795 |xxxxxxxxxxxxx |xxxxxxxxxxxxx |xxxxxxxxxxxxx |xxxxxxxxxxxxx |       832645 |       832661 |       832663 |xxxxxxxxxxxxx |xxxxxxxxxxxxx |xxxxxxxxxxxxx |xxxxxxxxxxxxx |      1781793 |      1781864 |      1781867 |xxxxxxxxxxxxx |xxxxxxxxxxxxx |xxxxxxxxxxxxx |xxxxxxxxxxxxx |      3726275 |      3726333 |      3726334 |xxxxxxxxxxxxx |xxxxxxxxxxxxx |xxxxxxxxxxxxx |xxxxxxxxxxxxx |      7911663 |      7911934 |      7911937 |xxxxxxxxxxxxx |xxxxxxxxxxxxx |xxxxxxxxxxxxx |xxxxxxxxxxxxx |     17071079 |     17071245 |     17071247 |xxxxxxxxxxxxx |xxxxxxxxxxxxx |xxxxxxxxxxxxx |xxxxxxxxxxxxx |     35979835 |     35980877 |     35980877 |xxxxxxxxxxxxx |xxxxxxxxxxxxx |xxxxxxxxxxxxx |xxxxxxxxxxxxx |     74588653 |     74589301 |     74589306 |xxxxxxxxxxxxx |xxxxxxxxxxxxx |xxxxxxxxxxxxx |xxxxxxxxxxxxx |    156564902 |    156568905 |    156568905 |
bpred_bimod.dir_hits                         87684 |        87699 |        87701 |xxxxxxxxxxxxx |xxxxxxxxxxxxx |xxxxxxxxxxxxx |xxxxxxxxxxxxx |       184407 |       184416 |       184416 |xxxxxxxxxxxxx |xxxxxxxxxxxxx |xxxxxxxxxxxxx |xxxxxxxxxxxxx |       396920 |       396942 |       396946 |xxxxxxxxxxxxx |xxxxxxxxxxxxx |xxxxxxxxxxxxx |xxxxxxxxxxxxx |       832798 |       832815 |       832819 |xxxxxxxxxxxxx |xxxxxxxxxxxxx |xxxxxxxxxxxxx |xxxxxxxxxxxxx |      1781943 |      1782013 |      1782019 |xxxxxxxxxxxxx |xxxxxxxxxxxxx |xxxxxxxxxxxxx |xxxxxxxxxxxxx |      3726430 |      3726489 |      3726492 |xxxxxxxxxxxxx |xxxxxxxxxxxxx |xxxxxxxxxxxxx |xxxxxxxxxxxxx |      7911810 |      7912080 |      7912086 |xxxxxxxxxxxxx |xxxxxxxxxxxxx |xxxxxxxxxxxxx |xxxxxxxxxxxxx |     17071256 |     17071422 |     17071425 |xxxxxxxxxxxxx |xxxxxxxxxxxxx |xxxxxxxxxxxxx |xxxxxxxxxxxxx |     35980012 |     35981052 |     35981052 |xxxxxxxxxxxxx |xxxxxxxxxxxxx |xxxxxxxxxxxxx |xxxxxxxxxxxxx |     74588831 |     74589479 |     74589485 |xxxxxxxxxxxxx |xxxxxxxxxxxxx |xxxxxxxxxxxxx |xxxxxxxxxxxxx |    156565078 |    156569079 |    156569080 |
bpred_bimod.misses                           25479 |        25464 |        25462 |xxxxxxxxxxxxx |xxxxxxxxxxxxx |xxxxxxxxxxxxx |xxxxxxxxxxxxx |        51581 |        51572 |        51572 |xxxxxxxxxxxxx |xxxxxxxxxxxxx |xxxxxxxxxxxxx |xxxxxxxxxxxxx |       118156 |       118134 |       118130 |xxxxxxxxxxxxx |xxxxxxxxxxxxx |xxxxxxxxxxxxx |xxxxxxxxxxxxx |       238465 |       238448 |       238444 |xxxxxxxxxxxxx |xxxxxxxxxxxxx |xxxxxxxxxxxxx |xxxxxxxxxxxxx |       537607 |       537537 |       537531 |xxxxxxxxxxxxx |xxxxxxxxxxxxx |xxxxxxxxxxxxx |xxxxxxxxxxxxx |      1085637 |      1085578 |      1085575 |xxxxxxxxxxxxx |xxxxxxxxxxxxx |xxxxxxxxxxxxx |xxxxxxxxxxxxx |      2410817 |      2410547 |      2410541 |xxxxxxxxxxxxx |xxxxxxxxxxxxx |xxxxxxxxxxxxx |xxxxxxxxxxxxx |      4865700 |      4865534 |      4865531 |xxxxxxxxxxxxx |xxxxxxxxxxxxx |xxxxxxxxxxxxx |xxxxxxxxxxxxx |     10692697 |     10691657 |     10691657 |xxxxxxxxxxxxx |xxxxxxxxxxxxx |xxxxxxxxxxxxx |xxxxxxxxxxxxx |     21557833 |     21557185 |     21557179 |xxxxxxxxxxxxx |xxxxxxxxxxxxx |xxxxxxxxxxxxx |xxxxxxxxxxxxx |     46974848 |     46970847 |     46970846 |
bpred_bimod.jr_hits                             79 |           79 |           79 |xxxxxxxxxxxxx |xxxxxxxxxxxxx |xxxxxxxxxxxxx |xxxxxxxxxxxxx |           87 |           87 |           87 |xxxxxxxxxxxxx |xxxxxxxxxxxxx |xxxxxxxxxxxxx |xxxxxxxxxxxxx |          103 |          103 |          103 |xxxxxxxxxxxxx |xxxxxxxxxxxxx |xxxxxxxxxxxxx |xxxxxxxxxxxxx |          135 |          135 |          135 |xxxxxxxxxxxxx |xxxxxxxxxxxxx |xxxxxxxxxxxxx |xxxxxxxxxxxxx |          199 |          199 |          199 |xxxxxxxxxxxxx |xxxxxxxxxxxxx |xxxxxxxxxxxxx |xxxxxxxxxxxxx |          327 |          327 |          327 |xxxxxxxxxxxxx |xxxxxxxxxxxxx |xxxxxxxxxxxxx |xxxxxxxxxxxxx |          583 |          583 |          583 |xxxxxxxxxxxxx |xxxxxxxxxxxxx |xxxxxxxxxxxxx |xxxxxxxxxxxxx |         1100 |         1100 |         1100 |xxxxxxxxxxxxx |xxxxxxxxxxxxx |xxxxxxxxxxxxx |xxxxxxxxxxxxx |         2126 |         2126 |         2126 |xxxxxxxxxxxxx |xxxxxxxxxxxxx |xxxxxxxxxxxxx |xxxxxxxxxxxxx |         4178 |         4178 |         4178 |xxxxxxxxxxxxx |xxxxxxxxxxxxx |xxxxxxxxxxxxx |xxxxxxxxxxxxx |         8282 |         8282 |         8282 |
bpred_bimod.jr_seen                             80 |           80 |           80 |xxxxxxxxxxxxx |xxxxxxxxxxxxx |xxxxxxxxxxxxx |xxxxxxxxxxxxx |           88 |           88 |           88 |xxxxxxxxxxxxx |xxxxxxxxxxxxx |xxxxxxxxxxxxx |xxxxxxxxxxxxx |          104 |          104 |          104 |xxxxxxxxxxxxx |xxxxxxxxxxxxx |xxxxxxxxxxxxx |xxxxxxxxxxxxx |          136 |          136 |          136 |xxxxxxxxxxxxx |xxxxxxxxxxxxx |xxxxxxxxxxxxx |xxxxxxxxxxxxx |          200 |          200 |          200 |xxxxxxxxxxxxx |xxxxxxxxxxxxx |xxxxxxxxxxxxx |xxxxxxxxxxxxx |          328 |          328 |          328 |xxxxxxxxxxxxx |xxxxxxxxxxxxx |xxxxxxxxxxxxx |xxxxxxxxxxxxx |          584 |          584 |          584 |xxxxxxxxxxxxx |xxxxxxxxxxxxx |xxxxxxxxxxxxx |xxxxxxxxxxxxx |         1101 |         1101 |         1101 |xxxxxxxxxxxxx |xxxxxxxxxxxxx |xxxxxxxxxxxxx |xxxxxxxxxxxxx |         2127 |         2127 |         2127 |xxxxxxxxxxxxx |xxxxxxxxxxxxx |xxxxxxxxxxxxx |xxxxxxxxxxxxx |         4179 |         4179 |         4179 |xxxxxxxxxxxxx |xxxxxxxxxxxxx |xxxxxxxxxxxxx |xxxxxxxxxxxxx |         8283 |         8283 |         8283 |
bpred_bimod.jr_non_ras_hits.PP                   0 |            0 |            0 |xxxxxxxxxxxxx |xxxxxxxxxxxxx |xxxxxxxxxxxxx |xxxxxxxxxxxxx |            0 |            0 |            0 |xxxxxxxxxxxxx |xxxxxxxxxxxxx |xxxxxxxxxxxxx |xxxxxxxxxxxxx |            0 |            0 |            0 |xxxxxxxxxxxxx |xxxxxxxxxxxxx |xxxxxxxxxxxxx |xxxxxxxxxxxxx |            0 |            0 |            0 |xxxxxxxxxxxxx |xxxxxxxxxxxxx |xxxxxxxxxxxxx |xxxxxxxxxxxxx |            0 |            0 |            0 |xxxxxxxxxxxxx |xxxxxxxxxxxxx |xxxxxxxxxxxxx |xxxxxxxxxxxxx |            0 |            0 |            0 |xxxxxxxxxxxxx |xxxxxxxxxxxxx |xxxxxxxxxxxxx |xxxxxxxxxxxxx |            0 |            0 |            0 |xxxxxxxxxxxxx |xxxxxxxxxxxxx |xxxxxxxxxxxxx |xxxxxxxxxxxxx |            0 |            0 |            0 |xxxxxxxxxxxxx |xxxxxxxxxxxxx |xxxxxxxxxxxxx |xxxxxxxxxxxxx |            0 |            0 |            0 |xxxxxxxxxxxxx |xxxxxxxxxxxxx |xxxxxxxxxxxxx |xxxxxxxxxxxxx |            0 |            0 |            0 |xxxxxxxxxxxxx |xxxxxxxxxxxxx |xxxxxxxxxxxxx |xxxxxxxxxxxxx |            0 |            0 |            0 |
bpred_bimod.jr_non_ras_seen.PP                   0 |            0 |            0 |xxxxxxxxxxxxx |xxxxxxxxxxxxx |xxxxxxxxxxxxx |xxxxxxxxxxxxx |            0 |            0 |            0 |xxxxxxxxxxxxx |xxxxxxxxxxxxx |xxxxxxxxxxxxx |xxxxxxxxxxxxx |            0 |            0 |            0 |xxxxxxxxxxxxx |xxxxxxxxxxxxx |xxxxxxxxxxxxx |xxxxxxxxxxxxx |            0 |            0 |            0 |xxxxxxxxxxxxx |xxxxxxxxxxxxx |xxxxxxxxxxxxx |xxxxxxxxxxxxx |            0 |            0 |            0 |xxxxxxxxxxxxx |xxxxxxxxxxxxx |xxxxxxxxxxxxx |xxxxxxxxxxxxx |            0 |            0 |            0 |xxxxxxxxxxxxx |xxxxxxxxxxxxx |xxxxxxxxxxxxx |xxxxxxxxxxxxx |            0 |            0 |            0 |xxxxxxxxxxxxx |xxxxxxxxxxxxx |xxxxxxxxxxxxx |xxxxxxxxxxxxx |            1 |            1 |            1 |xxxxxxxxxxxxx |xxxxxxxxxxxxx |xxxxxxxxxxxxx |xxxxxxxxxxxxx |            1 |            1 |            1 |xxxxxxxxxxxxx |xxxxxxxxxxxxx |xxxxxxxxxxxxx |xxxxxxxxxxxxx |            1 |            1 |            1 |xxxxxxxxxxxxx |xxxxxxxxxxxxx |xxxxxxxxxxxxx |xxxxxxxxxxxxx |            1 |            1 |            1 |
bpred_bimod.bpred_addr_rate                 0.7735 |       0.7736 |       0.7737 |xxxxxxxxxxxxx |xxxxxxxxxxxxx |xxxxxxxxxxxxx |xxxxxxxxxxxxx |       0.7808 |       0.7808 |       0.7808 |xxxxxxxxxxxxx |xxxxxxxxxxxxx |xxxxxxxxxxxxx |xxxxxxxxxxxxx |       0.7703 |       0.7704 |       0.7704 |xxxxxxxxxxxxx |xxxxxxxxxxxxx |xxxxxxxxxxxxx |xxxxxxxxxxxxx |       0.7773 |       0.7773 |       0.7773 |xxxxxxxxxxxxx |xxxxxxxxxxxxx |xxxxxxxxxxxxx |xxxxxxxxxxxxx |       0.7682 |       0.7682 |       0.7682 |xxxxxxxxxxxxx |xxxxxxxxxxxxx |xxxxxxxxxxxxx |xxxxxxxxxxxxx |       0.7744 |       0.7744 |       0.7744 |xxxxxxxxxxxxx |xxxxxxxxxxxxx |xxxxxxxxxxxxx |xxxxxxxxxxxxx |       0.7664 |       0.7665 |       0.7665 |xxxxxxxxxxxxx |xxxxxxxxxxxxx |xxxxxxxxxxxxx |xxxxxxxxxxxxx |       0.7782 |       0.7782 |       0.7782 |xxxxxxxxxxxxx |xxxxxxxxxxxxx |xxxxxxxxxxxxx |xxxxxxxxxxxxx |       0.7709 |       0.7709 |       0.7709 |xxxxxxxxxxxxx |xxxxxxxxxxxxx |xxxxxxxxxxxxx |xxxxxxxxxxxxx |       0.7758 |       0.7758 |       0.7758 |xxxxxxxxxxxxx |xxxxxxxxxxxxx |xxxxxxxxxxxxx |xxxxxxxxxxxxx |       0.7692 |       0.7692 |       0.7692 |
bpred_bimod.bpred_dir_rate                  0.7748 |       0.7750 |       0.7750 |xxxxxxxxxxxxx |xxxxxxxxxxxxx |xxxxxxxxxxxxx |xxxxxxxxxxxxx |       0.7814 |       0.7815 |       0.7815 |xxxxxxxxxxxxx |xxxxxxxxxxxxx |xxxxxxxxxxxxx |xxxxxxxxxxxxx |       0.7706 |       0.7706 |       0.7707 |xxxxxxxxxxxxx |xxxxxxxxxxxxx |xxxxxxxxxxxxx |xxxxxxxxxxxxx |       0.7774 |       0.7774 |       0.7774 |xxxxxxxxxxxxx |xxxxxxxxxxxxx |xxxxxxxxxxxxx |xxxxxxxxxxxxx |       0.7682 |       0.7683 |       0.7683 |xxxxxxxxxxxxx |xxxxxxxxxxxxx |xxxxxxxxxxxxx |xxxxxxxxxxxxx |       0.7744 |       0.7744 |       0.7744 |xxxxxxxxxxxxx |xxxxxxxxxxxxx |xxxxxxxxxxxxx |xxxxxxxxxxxxx |       0.7665 |       0.7665 |       0.7665 |xxxxxxxxxxxxx |xxxxxxxxxxxxx |xxxxxxxxxxxxx |xxxxxxxxxxxxx |       0.7782 |       0.7782 |       0.7782 |xxxxxxxxxxxxx |xxxxxxxxxxxxx |xxxxxxxxxxxxx |xxxxxxxxxxxxx |       0.7709 |       0.7709 |       0.7709 |xxxxxxxxxxxxx |xxxxxxxxxxxxx |xxxxxxxxxxxxx |xxxxxxxxxxxxx |       0.7758 |       0.7758 |       0.7758 |xxxxxxxxxxxxx |xxxxxxxxxxxxx |xxxxxxxxxxxxx |xxxxxxxxxxxxx |       0.7692 |       0.7692 |       0.7692 |
bpred_bimod.bpred_jr_rate                   0.9875 |       0.9875 |       0.9875 |xxxxxxxxxxxxx |xxxxxxxxxxxxx |xxxxxxxxxxxxx |xxxxxxxxxxxxx |       0.9886 |       0.9886 |       0.9886 |xxxxxxxxxxxxx |xxxxxxxxxxxxx |xxxxxxxxxxxxx |xxxxxxxxxxxxx |       0.9904 |       0.9904 |       0.9904 |xxxxxxxxxxxxx |xxxxxxxxxxxxx |xxxxxxxxxxxxx |xxxxxxxxxxxxx |       0.9926 |       0.9926 |       0.9926 |xxxxxxxxxxxxx |xxxxxxxxxxxxx |xxxxxxxxxxxxx |xxxxxxxxxxxxx |       0.9950 |       0.9950 |       0.9950 |xxxxxxxxxxxxx |xxxxxxxxxxxxx |xxxxxxxxxxxxx |xxxxxxxxxxxxx |       0.9970 |       0.9970 |       0.9970 |xxxxxxxxxxxxx |xxxxxxxxxxxxx |xxxxxxxxxxxxx |xxxxxxxxxxxxx |       0.9983 |       0.9983 |       0.9983 |xxxxxxxxxxxxx |xxxxxxxxxxxxx |xxxxxxxxxxxxx |xxxxxxxxxxxxx |       0.9991 |       0.9991 |       0.9991 |xxxxxxxxxxxxx |xxxxxxxxxxxxx |xxxxxxxxxxxxx |xxxxxxxxxxxxx |       0.9995 |       0.9995 |       0.9995 |xxxxxxxxxxxxx |xxxxxxxxxxxxx |xxxxxxxxxxxxx |xxxxxxxxxxxxx |       0.9998 |       0.9998 |       0.9998 |xxxxxxxxxxxxx |xxxxxxxxxxxxx |xxxxxxxxxxxxx |xxxxxxxxxxxxx |       0.9999 |       0.9999 |       0.9999 |
bpred_bimod.bpred_jr_non_ras_rate.PP       <error: |      <error: |      <error: |xxxxxxxxxxxxx |xxxxxxxxxxxxx |xxxxxxxxxxxxx |xxxxxxxxxxxxx |      <error: |      <error: |      <error: |xxxxxxxxxxxxx |xxxxxxxxxxxxx |xxxxxxxxxxxxx |xxxxxxxxxxxxx |      <error: |      <error: |      <error: |xxxxxxxxxxxxx |xxxxxxxxxxxxx |xxxxxxxxxxxxx |xxxxxxxxxxxxx |      <error: |      <error: |      <error: |xxxxxxxxxxxxx |xxxxxxxxxxxxx |xxxxxxxxxxxxx |xxxxxxxxxxxxx |      <error: |      <error: |      <error: |xxxxxxxxxxxxx |xxxxxxxxxxxxx |xxxxxxxxxxxxx |xxxxxxxxxxxxx |      <error: |      <error: |      <error: |xxxxxxxxxxxxx |xxxxxxxxxxxxx |xxxxxxxxxxxxx |xxxxxxxxxxxxx |      <error: |      <error: |      <error: |xxxxxxxxxxxxx |xxxxxxxxxxxxx |xxxxxxxxxxxxx |xxxxxxxxxxxxx |       0.0000 |       0.0000 |       0.0000 |xxxxxxxxxxxxx |xxxxxxxxxxxxx |xxxxxxxxxxxxx |xxxxxxxxxxxxx |       0.0000 |       0.0000 |       0.0000 |xxxxxxxxxxxxx |xxxxxxxxxxxxx |xxxxxxxxxxxxx |xxxxxxxxxxxxx |       0.0000 |       0.0000 |       0.0000 |xxxxxxxxxxxxx |xxxxxxxxxxxxx |xxxxxxxxxxxxx |xxxxxxxxxxxxx |       0.0000 |       0.0000 |       0.0000 |
bpred_bimod.retstack_pushes                     82 |           82 |           82 |xxxxxxxxxxxxx |xxxxxxxxxxxxx |xxxxxxxxxxxxx |xxxxxxxxxxxxx |           90 |           90 |           90 |xxxxxxxxxxxxx |xxxxxxxxxxxxx |xxxxxxxxxxxxx |xxxxxxxxxxxxx |          106 |          106 |          106 |xxxxxxxxxxxxx |xxxxxxxxxxxxx |xxxxxxxxxxxxx |xxxxxxxxxxxxx |          138 |          138 |          138 |xxxxxxxxxxxxx |xxxxxxxxxxxxx |xxxxxxxxxxxxx |xxxxxxxxxxxxx |          202 |          202 |          202 |xxxxxxxxxxxxx |xxxxxxxxxxxxx |xxxxxxxxxxxxx |xxxxxxxxxxxxx |          330 |          330 |          330 |xxxxxxxxxxxxx |xxxxxxxxxxxxx |xxxxxxxxxxxxx |xxxxxxxxxxxxx |          586 |          586 |          586 |xxxxxxxxxxxxx |xxxxxxxxxxxxx |xxxxxxxxxxxxx |xxxxxxxxxxxxx |         1102 |         1102 |         1102 |xxxxxxxxxxxxx |xxxxxxxxxxxxx |xxxxxxxxxxxxx |xxxxxxxxxxxxx |         2128 |         2128 |         2128 |xxxxxxxxxxxxx |xxxxxxxxxxxxx |xxxxxxxxxxxxx |xxxxxxxxxxxxx |         4180 |         4180 |         4180 |xxxxxxxxxxxxx |xxxxxxxxxxxxx |xxxxxxxxxxxxx |xxxxxxxxxxxxx |         8284 |         8284 |         8284 |
bpred_bimod.retstack_pops                       80 |           80 |           80 |xxxxxxxxxxxxx |xxxxxxxxxxxxx |xxxxxxxxxxxxx |xxxxxxxxxxxxx |           88 |           88 |           88 |xxxxxxxxxxxxx |xxxxxxxxxxxxx |xxxxxxxxxxxxx |xxxxxxxxxxxxx |          104 |          104 |          104 |xxxxxxxxxxxxx |xxxxxxxxxxxxx |xxxxxxxxxxxxx |xxxxxxxxxxxxx |          136 |          136 |          136 |xxxxxxxxxxxxx |xxxxxxxxxxxxx |xxxxxxxxxxxxx |xxxxxxxxxxxxx |          200 |          200 |          200 |xxxxxxxxxxxxx |xxxxxxxxxxxxx |xxxxxxxxxxxxx |xxxxxxxxxxxxx |          328 |          328 |          328 |xxxxxxxxxxxxx |xxxxxxxxxxxxx |xxxxxxxxxxxxx |xxxxxxxxxxxxx |          584 |          584 |          584 |xxxxxxxxxxxxx |xxxxxxxxxxxxx |xxxxxxxxxxxxx |xxxxxxxxxxxxx |         1100 |         1100 |         1100 |xxxxxxxxxxxxx |xxxxxxxxxxxxx |xxxxxxxxxxxxx |xxxxxxxxxxxxx |         2126 |         2126 |         2126 |xxxxxxxxxxxxx |xxxxxxxxxxxxx |xxxxxxxxxxxxx |xxxxxxxxxxxxx |         4178 |         4178 |         4178 |xxxxxxxxxxxxx |xxxxxxxxxxxxx |xxxxxxxxxxxxx |xxxxxxxxxxxxx |         8282 |         8282 |         8282 |
bpred_bimod.used_ras.PP                         80 |           80 |           80 |xxxxxxxxxxxxx |xxxxxxxxxxxxx |xxxxxxxxxxxxx |xxxxxxxxxxxxx |           88 |           88 |           88 |xxxxxxxxxxxxx |xxxxxxxxxxxxx |xxxxxxxxxxxxx |xxxxxxxxxxxxx |          104 |          104 |          104 |xxxxxxxxxxxxx |xxxxxxxxxxxxx |xxxxxxxxxxxxx |xxxxxxxxxxxxx |          136 |          136 |          136 |xxxxxxxxxxxxx |xxxxxxxxxxxxx |xxxxxxxxxxxxx |xxxxxxxxxxxxx |          200 |          200 |          200 |xxxxxxxxxxxxx |xxxxxxxxxxxxx |xxxxxxxxxxxxx |xxxxxxxxxxxxx |          328 |          328 |          328 |xxxxxxxxxxxxx |xxxxxxxxxxxxx |xxxxxxxxxxxxx |xxxxxxxxxxxxx |          584 |          584 |          584 |xxxxxxxxxxxxx |xxxxxxxxxxxxx |xxxxxxxxxxxxx |xxxxxxxxxxxxx |         1100 |         1100 |         1100 |xxxxxxxxxxxxx |xxxxxxxxxxxxx |xxxxxxxxxxxxx |xxxxxxxxxxxxx |         2126 |         2126 |         2126 |xxxxxxxxxxxxx |xxxxxxxxxxxxx |xxxxxxxxxxxxx |xxxxxxxxxxxxx |         4178 |         4178 |         4178 |xxxxxxxxxxxxx |xxxxxxxxxxxxx |xxxxxxxxxxxxx |xxxxxxxxxxxxx |         8282 |         8282 |         8282 |
bpred_bimod.ras_hits.PP                         79 |           79 |           79 |xxxxxxxxxxxxx |xxxxxxxxxxxxx |xxxxxxxxxxxxx |xxxxxxxxxxxxx |           87 |           87 |           87 |xxxxxxxxxxxxx |xxxxxxxxxxxxx |xxxxxxxxxxxxx |xxxxxxxxxxxxx |          103 |          103 |          103 |xxxxxxxxxxxxx |xxxxxxxxxxxxx |xxxxxxxxxxxxx |xxxxxxxxxxxxx |          135 |          135 |          135 |xxxxxxxxxxxxx |xxxxxxxxxxxxx |xxxxxxxxxxxxx |xxxxxxxxxxxxx |          199 |          199 |          199 |xxxxxxxxxxxxx |xxxxxxxxxxxxx |xxxxxxxxxxxxx |xxxxxxxxxxxxx |          327 |          327 |          327 |xxxxxxxxxxxxx |xxxxxxxxxxxxx |xxxxxxxxxxxxx |xxxxxxxxxxxxx |          583 |          583 |          583 |xxxxxxxxxxxxx |xxxxxxxxxxxxx |xxxxxxxxxxxxx |xxxxxxxxxxxxx |         1100 |         1100 |         1100 |xxxxxxxxxxxxx |xxxxxxxxxxxxx |xxxxxxxxxxxxx |xxxxxxxxxxxxx |         2126 |         2126 |         2126 |xxxxxxxxxxxxx |xxxxxxxxxxxxx |xxxxxxxxxxxxx |xxxxxxxxxxxxx |         4178 |         4178 |         4178 |xxxxxxxxxxxxx |xxxxxxxxxxxxx |xxxxxxxxxxxxx |xxxxxxxxxxxxx |         8282 |         8282 |         8282 |
bpred_bimod.ras_rate.PP                     0.9875 |       0.9875 |       0.9875 |xxxxxxxxxxxxx |xxxxxxxxxxxxx |xxxxxxxxxxxxx |xxxxxxxxxxxxx |       0.9886 |       0.9886 |       0.9886 |xxxxxxxxxxxxx |xxxxxxxxxxxxx |xxxxxxxxxxxxx |xxxxxxxxxxxxx |       0.9904 |       0.9904 |       0.9904 |xxxxxxxxxxxxx |xxxxxxxxxxxxx |xxxxxxxxxxxxx |xxxxxxxxxxxxx |       0.9926 |       0.9926 |       0.9926 |xxxxxxxxxxxxx |xxxxxxxxxxxxx |xxxxxxxxxxxxx |xxxxxxxxxxxxx |       0.9950 |       0.9950 |       0.9950 |xxxxxxxxxxxxx |xxxxxxxxxxxxx |xxxxxxxxxxxxx |xxxxxxxxxxxxx |       0.9970 |       0.9970 |       0.9970 |xxxxxxxxxxxxx |xxxxxxxxxxxxx |xxxxxxxxxxxxx |xxxxxxxxxxxxx |       0.9983 |       0.9983 |       0.9983 |xxxxxxxxxxxxx |xxxxxxxxxxxxx |xxxxxxxxxxxxx |xxxxxxxxxxxxx |       1.0000 |       1.0000 |       1.0000 |xxxxxxxxxxxxx |xxxxxxxxxxxxx |xxxxxxxxxxxxx |xxxxxxxxxxxxx |       1.0000 |       1.0000 |       1.0000 |xxxxxxxxxxxxx |xxxxxxxxxxxxx |xxxxxxxxxxxxx |xxxxxxxxxxxxx |       1.0000 |       1.0000 |       1.0000 |xxxxxxxxxxxxx |xxxxxxxxxxxxx |xxxxxxxxxxxxx |xxxxxxxxxxxxx |       1.0000 |       1.0000 |       1.0000 |
bpred_2lev.lookups                   xxxxxxxxxxxxx |xxxxxxxxxxxxx |xxxxxxxxxxxxx |       113163 |       113163 |       113163 |       113163 |xxxxxxxxxxxxx |xxxxxxxxxxxxx |xxxxxxxxxxxxx |       235988 |       235988 |       235988 |       235988 |xxxxxxxxxxxxx |xxxxxxxxxxxxx |xxxxxxxxxxxxx |       515076 |       515076 |       515076 |       515076 |xxxxxxxxxxxxx |xxxxxxxxxxxxx |xxxxxxxxxxxxx |      1071263 |      1071263 |      1071263 |      1071263 |xxxxxxxxxxxxx |xxxxxxxxxxxxx |xxxxxxxxxxxxx |      2319550 |      2319550 |      2319550 |      2319550 |xxxxxxxxxxxxx |xxxxxxxxxxxxx |xxxxxxxxxxxxx |      4812067 |      4812067 |      4812067 |      4812067 |xxxxxxxxxxxxx |xxxxxxxxxxxxx |xxxxxxxxxxxxx |     10322627 |     10322627 |     10322627 |     10322627 |xxxxxxxxxxxxx |xxxxxxxxxxxxx |xxxxxxxxxxxxx |     21936956 |     21936956 |     21936956 |     21936956 |xxxxxxxxxxxxx |xxxxxxxxxxxxx |xxxxxxxxxxxxx |     46672709 |     46672709 |     46672709 |     46672709 |xxxxxxxxxxxxx |xxxxxxxxxxxxx |xxxxxxxxxxxxx |     96146664 |     96146664 |     96146664 |     96146664 |xxxxxxxxxxxxx |xxxxxxxxxxxxx |xxxxxxxxxxxxx |    203539926 |    203539926 |    203539926 |    203539926 |
[...]
bpred_2lev.retstack_pushes           xxxxxxxxxxxxx |xxxxxxxxxxxxx |xxxxxxxxxxxxx |           82 |           82 |           82 |           82 |xxxxxxxxxxxxx |xxxxxxxxxxxxx |xxxxxxxxxxxxx |           90 |           90 |           90 |           90 |xxxxxxxxxxxxx |xxxxxxxxxxxxx |xxxxxxxxxxxxx |          106 |          106 |          106 |          106 |xxxxxxxxxxxxx |xxxxxxxxxxxxx |xxxxxxxxxxxxx |          138 |          138 |          138 |          138 |xxxxxxxxxxxxx |xxxxxxxxxxxxx |xxxxxxxxxxxxx |          202 |          202 |          202 |          202 |xxxxxxxxxxxxx |xxxxxxxxxxxxx |xxxxxxxxxxxxx |          330 |          330 |          330 |          330 |xxxxxxxxxxxxx |xxxxxxxxxxxxx |xxxxxxxxxxxxx |          586 |          586 |          586 |          586 |xxxxxxxxxxxxx |xxxxxxxxxxxxx |xxxxxxxxxxxxx |         1102 |         1102 |         1102 |         1102 |xxxxxxxxxxxxx |xxxxxxxxxxxxx |xxxxxxxxxxxxx |         2128 |         2128 |         2128 |         2128 |xxxxxxxxxxxxx |xxxxxxxxxxxxx |xxxxxxxxxxxxx |         4180 |         4180 |         4180 |         4180 |xxxxxxxxxxxxx |xxxxxxxxxxxxx |xxxxxxxxxxxxx |         8284 |         8284 |         8284 |         8284 |
bpred_2lev.retstack_pops             xxxxxxxxxxxxx |xxxxxxxxxxxxx |xxxxxxxxxxxxx |           80 |           80 |           80 |           80 |xxxxxxxxxxxxx |xxxxxxxxxxxxx |xxxxxxxxxxxxx |           88 |           88 |           88 |           88 |xxxxxxxxxxxxx |xxxxxxxxxxxxx |xxxxxxxxxxxxx |          104 |          104 |          104 |          104 |xxxxxxxxxxxxx |xxxxxxxxxxxxx |xxxxxxxxxxxxx |          136 |          136 |          136 |          136 |xxxxxxxxxxxxx |xxxxxxxxxxxxx |xxxxxxxxxxxxx |          200 |          200 |          200 |          200 |xxxxxxxxxxxxx |xxxxxxxxxxxxx |xxxxxxxxxxxxx |          328 |          328 |          328 |          328 |xxxxxxxxxxxxx |xxxxxxxxxxxxx |xxxxxxxxxxxxx |          584 |          584 |          584 |          584 |xxxxxxxxxxxxx |xxxxxxxxxxxxx |xxxxxxxxxxxxx |         1100 |         1100 |         1100 |         1100 |xxxxxxxxxxxxx |xxxxxxxxxxxxx |xxxxxxxxxxxxx |         2126 |         2126 |         2126 |         2126 |xxxxxxxxxxxxx |xxxxxxxxxxxxx |xxxxxxxxxxxxx |         4178 |         4178 |         4178 |         4178 |xxxxxxxxxxxxx |xxxxxxxxxxxxx |xxxxxxxxxxxxx |         8282 |         8282 |         8282 |         8282 |
bpred_2lev.used_ras.PP               xxxxxxxxxxxxx |xxxxxxxxxxxxx |xxxxxxxxxxxxx |           80 |           80 |           80 |           80 |xxxxxxxxxxxxx |xxxxxxxxxxxxx |xxxxxxxxxxxxx |           88 |           88 |           88 |           88 |xxxxxxxxxxxxx |xxxxxxxxxxxxx |xxxxxxxxxxxxx |          104 |          104 |          104 |          104 |xxxxxxxxxxxxx |xxxxxxxxxxxxx |xxxxxxxxxxxxx |          136 |          136 |          136 |          136 |xxxxxxxxxxxxx |xxxxxxxxxxxxx |xxxxxxxxxxxxx |          200 |          200 |          200 |          200 |xxxxxxxxxxxxx |xxxxxxxxxxxxx |xxxxxxxxxxxxx |          328 |          328 |          328 |          328 |xxxxxxxxxxxxx |xxxxxxxxxxxxx |xxxxxxxxxxxxx |          584 |          584 |          584 |          584 |xxxxxxxxxxxxx |xxxxxxxxxxxxx |xxxxxxxxxxxxx |         1100 |         1100 |         1100 |         1100 |xxxxxxxxxxxxx |xxxxxxxxxxxxx |xxxxxxxxxxxxx |         2126 |         2126 |         2126 |         2126 |xxxxxxxxxxxxx |xxxxxxxxxxxxx |xxxxxxxxxxxxx |         4178 |         4178 |         4178 |         4178 |xxxxxxxxxxxxx |xxxxxxxxxxxxx |xxxxxxxxxxxxx |         8282 |         8282 |         8282 |         8282 |
bpred_2lev.ras_hits.PP               xxxxxxxxxxxxx |xxxxxxxxxxxxx |xxxxxxxxxxxxx |           79 |           79 |           79 |           79 |xxxxxxxxxxxxx |xxxxxxxxxxxxx |xxxxxxxxxxxxx |           87 |           87 |           87 |           87 |xxxxxxxxxxxxx |xxxxxxxxxxxxx |xxxxxxxxxxxxx |          103 |          103 |          103 |          103 |xxxxxxxxxxxxx |xxxxxxxxxxxxx |xxxxxxxxxxxxx |          135 |          135 |          135 |          135 |xxxxxxxxxxxxx |xxxxxxxxxxxxx |xxxxxxxxxxxxx |          199 |          199 |          199 |          199 |xxxxxxxxxxxxx |xxxxxxxxxxxxx |xxxxxxxxxxxxx |          327 |          327 |          327 |          327 |xxxxxxxxxxxxx |xxxxxxxxxxxxx |xxxxxxxxxxxxx |          583 |          583 |          583 |          583 |xxxxxxxxxxxxx |xxxxxxxxxxxxx |xxxxxxxxxxxxx |         1100 |         1100 |         1100 |         1100 |xxxxxxxxxxxxx |xxxxxxxxxxxxx |xxxxxxxxxxxxx |         2126 |         2126 |         2126 |         2126 |xxxxxxxxxxxxx |xxxxxxxxxxxxx |xxxxxxxxxxxxx |         4178 |         4178 |         4178 |         4178 |xxxxxxxxxxxxx |xxxxxxxxxxxxx |xxxxxxxxxxxxx |         8282 |         8282 |         8282 |         8282 |
bpred_2lev.ras_rate.PP               xxxxxxxxxxxxx |xxxxxxxxxxxxx |xxxxxxxxxxxxx |       0.9875 |       0.9875 |       0.9875 |       0.9875 |xxxxxxxxxxxxx |xxxxxxxxxxxxx |xxxxxxxxxxxxx |       0.9886 |       0.9886 |       0.9886 |       0.9886 |xxxxxxxxxxxxx |xxxxxxxxxxxxx |xxxxxxxxxxxxx |       0.9904 |       0.9904 |       0.9904 |       0.9904 |xxxxxxxxxxxxx |xxxxxxxxxxxxx |xxxxxxxxxxxxx |       0.9926 |       0.9926 |       0.9926 |       0.9926 |xxxxxxxxxxxxx |xxxxxxxxxxxxx |xxxxxxxxxxxxx |       0.9950 |       0.9950 |       0.9950 |       0.9950 |xxxxxxxxxxxxx |xxxxxxxxxxxxx |xxxxxxxxxxxxx |       0.9970 |       0.9970 |       0.9970 |       0.9970 |xxxxxxxxxxxxx |xxxxxxxxxxxxx |xxxxxxxxxxxxx |       0.9983 |       0.9983 |       0.9983 |       0.9983 |xxxxxxxxxxxxx |xxxxxxxxxxxxx |xxxxxxxxxxxxx |       1.0000 |       1.0000 |       1.0000 |       1.0000 |xxxxxxxxxxxxx |xxxxxxxxxxxxx |xxxxxxxxxxxxx |       1.0000 |       1.0000 |       1.0000 |       1.0000 |xxxxxxxxxxxxx |xxxxxxxxxxxxx |xxxxxxxxxxxxx |       1.0000 |       1.0000 |       1.0000 |       1.0000 |xxxxxxxxxxxxx |xxxxxxxxxxxxx |xxxxxxxxxxxxx |       1.0000 |       1.0000 |       1.0000 |       1.0000 |

Command list: 
	sslittle-na-sstrix-gcc -Wall -O3 -funroll-loops -finline-functions  -DRANDOM_SIZE=4096 -DOFFSET=2 -DSORT=tiled_mergesort sorts/tiled_mergesort1142994998.c simpleMain.c -o tiled_mergesort1786040351
	sim-cache -cache:dl1 dl1:256:32:1:l -cache:dl2 dl2:131072:32:1:l -cache:il1 il1:256:32:1:l -cache:il2 dl2 tiled_mergesort1786040351
	sim-cache -cache:dl1 dl1:256:32:1:l -cache:dl2 dl2:65536:32:1:l -cache:il1 il1:256:32:1:l -cache:il2 dl2 tiled_mergesort1786040351
	sim-cache -cache:dl1 dl1:1:32:256:l -cache:dl2 dl2:1:32:131072:l -cache:il1 il1:1:32:256:l -cache:il2 dl2 tiled_mergesort1786040351
	sim-cache -cache:dl1 dl1:1:32:256:l -cache:dl2 dl2:1:32:65536:l -cache:il1 il1:1:32:256:l -cache:il2 dl2 tiled_mergesort1786040351
	sim-bpred -bpred bimod -bpred:bimod 512 tiled_mergesort1786040351
	sim-bpred -bpred bimod -bpred:bimod 1024 tiled_mergesort1786040351
	sim-bpred -bpred bimod -bpred:bimod 2048 tiled_mergesort1786040351
	sim-bpred -bpred 2lev -bpred:2lev 1 512 10 1 tiled_mergesort1786040351
	sim-bpred -bpred 2lev -bpred:2lev 1 1024 10 1 tiled_mergesort1786040351
	sim-bpred -bpred 2lev -bpred:2lev 1 2048 10 1 tiled_mergesort1786040351
	sim-bpred -bpred 2lev -bpred:2lev 1 4096 10 1 tiled_mergesort1786040351
	sslittle-na-sstrix-gcc -Wall -O3 -funroll-loops -finline-functions  -DRANDOM_SIZE=8192 -DOFFSET=2 -DSORT=tiled_mergesort sorts/tiled_mergesort1142994998.c simpleMain.c -o tiled_mergesort1786040351
	sim-cache -cache:dl1 dl1:256:32:1:l -cache:dl2 dl2:131072:32:1:l -cache:il1 il1:256:32:1:l -cache:il2 dl2 tiled_mergesort1786040351
	sim-cache -cache:dl1 dl1:256:32:1:l -cache:dl2 dl2:65536:32:1:l -cache:il1 il1:256:32:1:l -cache:il2 dl2 tiled_mergesort1786040351
	sim-cache -cache:dl1 dl1:1:32:256:l -cache:dl2 dl2:1:32:131072:l -cache:il1 il1:1:32:256:l -cache:il2 dl2 tiled_mergesort1786040351
	sim-cache -cache:dl1 dl1:1:32:256:l -cache:dl2 dl2:1:32:65536:l -cache:il1 il1:1:32:256:l -cache:il2 dl2 tiled_mergesort1786040351
	sim-bpred -bpred bimod -bpred:bimod 512 tiled_mergesort1786040351
	sim-bpred -bpred bimod -bpred:bimod 1024 tiled_mergesort1786040351
	sim-bpred -bpred bimod -bpred:bimod 2048 tiled_mergesort1786040351
	sim-bpred -bpred 2lev -bpred:2lev 1 512 10 1 tiled_mergesort1786040351
	sim-bpred -bpred 2lev -bpred:2lev 1 1024 10 1 tiled_mergesort1786040351
	sim-bpred -bpred 2lev -bpred:2lev 1 2048 10 1 tiled_mergesort1786040351
	sim-bpred -bpred 2lev -bpred:2lev 1 4096 10 1 tiled_mergesort1786040351
	sslittle-na-sstrix-gcc -Wall -O3 -funroll-loops -finline-functions  -DRANDOM_SIZE=16384 -DOFFSET=2 -DSORT=tiled_mergesort sorts/tiled_mergesort1142994998.c simpleMain.c -o tiled_mergesort1786040351
	sim-cache -cache:dl1 dl1:256:32:1:l -cache:dl2 dl2:131072:32:1:l -cache:il1 il1:256:32:1:l -cache:il2 dl2 tiled_mergesort1786040351
	sim-cache -cache:dl1 dl1:256:32:1:l -cache:dl2 dl2:65536:32:1:l -cache:il1 il1:256:32:1:l -cache:il2 dl2 tiled_mergesort1786040351
	sim-cache -cache:dl1 dl1:1:32:256:l -cache:dl2 dl2:1:32:131072:l -cache:il1 il1:1:32:256:l -cache:il2 dl2 tiled_mergesort1786040351
	sim-cache -cache:dl1 dl1:1:32:256:l -cache:dl2 dl2:1:32:65536:l -cache:il1 il1:1:32:256:l -cache:il2 dl2 tiled_mergesort1786040351
	sim-bpred -bpred bimod -bpred:bimod 512 tiled_mergesort1786040351
	sim-bpred -bpred bimod -bpred:bimod 1024 tiled_mergesort1786040351
	sim-bpred -bpred bimod -bpred:bimod 2048 tiled_mergesort1786040351
	sim-bpred -bpred 2lev -bpred:2lev 1 512 10 1 tiled_mergesort1786040351
	sim-bpred -bpred 2lev -bpred:2lev 1 1024 10 1 tiled_mergesort1786040351
	sim-bpred -bpred 2lev -bpred:2lev 1 2048 10 1 tiled_mergesort1786040351
	sim-bpred -bpred 2lev -bpred:2lev 1 4096 10 1 tiled_mergesort1786040351
	sslittle-na-sstrix-gcc -Wall -O3 -funroll-loops -finline-functions  -DRANDOM_SIZE=32768 -DOFFSET=2 -DSORT=tiled_mergesort sorts/tiled_mergesort1142994998.c simpleMain.c -o tiled_mergesort1786040351
	sim-cache -cache:dl1 dl1:256:32:1:l -cache:dl2 dl2:131072:32:1:l -cache:il1 il1:256:32:1:l -cache:il2 dl2 tiled_mergesort1786040351
	sim-cache -cache:dl1 dl1:256:32:1:l -cache:dl2 dl2:65536:32:1:l -cache:il1 il1:256:32:1:l -cache:il2 dl2 tiled_mergesort1786040351
	sim-cache -cache:dl1 dl1:1:32:256:l -cache:dl2 dl2:1:32:131072:l -cache:il1 il1:1:32:256:l -cache:il2 dl2 tiled_mergesort1786040351
	sim-cache -cache:dl1 dl1:1:32:256:l -cache:dl2 dl2:1:32:65536:l -cache:il1 il1:1:32:256:l -cache:il2 dl2 tiled_mergesort1786040351
	sim-bpred -bpred bimod -bpred:bimod 512 tiled_mergesort1786040351
	sim-bpred -bpred bimod -bpred:bimod 1024 tiled_mergesort1786040351
	sim-bpred -bpred bimod -bpred:bimod 2048 tiled_mergesort1786040351
	sim-bpred -bpred 2lev -bpred:2lev 1 512 10 1 tiled_mergesort1786040351
	sim-bpred -bpred 2lev -bpred:2lev 1 1024 10 1 tiled_mergesort1786040351
	sim-bpred -bpred 2lev -bpred:2lev 1 2048 10 1 tiled_mergesort1786040351
	sim-bpred -bpred 2lev -bpred:2lev 1 4096 10 1 tiled_mergesort1786040351
	sslittle-na-sstrix-gcc -Wall -O3 -funroll-loops -finline-functions  -DRANDOM_SIZE=65536 -DOFFSET=2 -DSORT=tiled_mergesort sorts/tiled_mergesort1142994998.c simpleMain.c -o tiled_mergesort1786040351
	sim-cache -cache:dl1 dl1:256:32:1:l -cache:dl2 dl2:131072:32:1:l -cache:il1 il1:256:32:1:l -cache:il2 dl2 tiled_mergesort1786040351
	sim-cache -cache:dl1 dl1:256:32:1:l -cache:dl2 dl2:65536:32:1:l -cache:il1 il1:256:32:1:l -cache:il2 dl2 tiled_mergesort1786040351
	sim-cache -cache:dl1 dl1:1:32:256:l -cache:dl2 dl2:1:32:131072:l -cache:il1 il1:1:32:256:l -cache:il2 dl2 tiled_mergesort1786040351
	sim-cache -cache:dl1 dl1:1:32:256:l -cache:dl2 dl2:1:32:65536:l -cache:il1 il1:1:32:256:l -cache:il2 dl2 tiled_mergesort1786040351
	sim-bpred -bpred bimod -bpred:bimod 512 tiled_mergesort1786040351
	sim-bpred -bpred bimod -bpred:bimod 1024 tiled_mergesort1786040351
	sim-bpred -bpred bimod -bpred:bimod 2048 tiled_mergesort1786040351
	sim-bpred -bpred 2lev -bpred:2lev 1 512 10 1 tiled_mergesort1786040351
	sim-bpred -bpred 2lev -bpred:2lev 1 1024 10 1 tiled_mergesort1786040351
	sim-bpred -bpred 2lev -bpred:2lev 1 2048 10 1 tiled_mergesort1786040351
	sim-bpred -bpred 2lev -bpred:2lev 1 4096 10 1 tiled_mergesort1786040351
	sslittle-na-sstrix-gcc -Wall -O3 -funroll-loops -finline-functions  -DRANDOM_SIZE=131072 -DOFFSET=2 -DSORT=tiled_mergesort sorts/tiled_mergesort1142994998.c simpleMain.c -o tiled_mergesort1786040351
	sim-cache -cache:dl1 dl1:256:32:1:l -cache:dl2 dl2:131072:32:1:l -cache:il1 il1:256:32:1:l -cache:il2 dl2 tiled_mergesort1786040351
	sim-cache -cache:dl1 dl1:256:32:1:l -cache:dl2 dl2:65536:32:1:l -cache:il1 il1:256:32:1:l -cache:il2 dl2 tiled_mergesort1786040351
	sim-cache -cache:dl1 dl1:1:32:256:l -cache:dl2 dl2:1:32:131072:l -cache:il1 il1:1:32:256:l -cache:il2 dl2 tiled_mergesort1786040351
	sim-cache -cache:dl1 dl1:1:32:256:l -cache:dl2 dl2:1:32:65536:l -cache:il1 il1:1:32:256:l -cache:il2 dl2 tiled_mergesort1786040351
	sim-bpred -bpred bimod -bpred:bimod 512 tiled_mergesort1786040351
	sim-bpred -bpred bimod -bpred:bimod 1024 tiled_mergesort1786040351
	sim-bpred -bpred bimod -bpred:bimod 2048 tiled_mergesort1786040351
	sim-bpred -bpred 2lev -bpred:2lev 1 512 10 1 tiled_mergesort1786040351
	sim-bpred -bpred 2lev -bpred:2lev 1 1024 10 1 tiled_mergesort1786040351
	sim-bpred -bpred 2lev -bpred:2lev 1 2048 10 1 tiled_mergesort1786040351
	sim-bpred -bpred 2lev -bpred:2lev 1 4096 10 1 tiled_mergesort1786040351
	sslittle-na-sstrix-gcc -Wall -O3 -funroll-loops -finline-functions  -DRANDOM_SIZE=262144 -DOFFSET=2 -DSORT=tiled_mergesort sorts/tiled_mergesort1142994998.c simpleMain.c -o tiled_mergesort1786040351
	sim-cache -cache:dl1 dl1:256:32:1:l -cache:dl2 dl2:131072:32:1:l -cache:il1 il1:256:32:1:l -cache:il2 dl2 tiled_mergesort1786040351
	sim-cache -cache:dl1 dl1:256:32:1:l -cache:dl2 dl2:65536:32:1:l -cache:il1 il1:256:32:1:l -cache:il2 dl2 tiled_mergesort1786040351
	sim-cache -cache:dl1 dl1:1:32:256:l -cache:dl2 dl2:1:32:131072:l -cache:il1 il1:1:32:256:l -cache:il2 dl2 tiled_mergesort1786040351
	sim-cache -cache:dl1 dl1:1:32:256:l -cache:dl2 dl2:1:32:65536:l -cache:il1 il1:1:32:256:l -cache:il2 dl2 tiled_mergesort1786040351
	sim-bpred -bpred bimod -bpred:bimod 512 tiled_mergesort1786040351
	sim-bpred -bpred bimod -bpred:bimod 1024 tiled_mergesort1786040351
	sim-bpred -bpred bimod -bpred:bimod 2048 tiled_mergesort1786040351
	sim-bpred -bpred 2lev -bpred:2lev 1 512 10 1 tiled_mergesort1786040351
	sim-bpred -bpred 2lev -bpred:2lev 1 1024 10 1 tiled_mergesort1786040351
	sim-bpred -bpred 2lev -bpred:2lev 1 2048 10 1 tiled_mergesort1786040351
	sim-bpred -bpred 2lev -bpred:2lev 1 4096 10 1 tiled_mergesort1786040351
	sslittle-na-sstrix-gcc -Wall -O3 -funroll-loops -finline-functions  -DRANDOM_SIZE=524288 -DOFFSET=2 -DSORT=tiled_mergesort sorts/tiled_mergesort1142994998.c simpleMain.c -o tiled_mergesort1786040351
	sim-cache -cache:dl1 dl1:256:32:1:l -cache:dl2 dl2:131072:32:1:l -cache:il1 il1:256:32:1:l -cache:il2 dl2 tiled_mergesort1786040351
	sim-cache -cache:dl1 dl1:256:32:1:l -cache:dl2 dl2:65536:32:1:l -cache:il1 il1:256:32:1:l -cache:il2 dl2 tiled_mergesort1786040351
	sim-cache -cache:dl1 dl1:1:32:256:l -cache:dl2 dl2:1:32:131072:l -cache:il1 il1:1:32:256:l -cache:il2 dl2 tiled_mergesort1786040351
	sim-cache -cache:dl1 dl1:1:32:256:l -cache:dl2 dl2:1:32:65536:l -cache:il1 il1:1:32:256:l -cache:il2 dl2 tiled_mergesort1786040351
	sim-bpred -bpred bimod -bpred:bimod 512 tiled_mergesort1786040351
	sim-bpred -bpred bimod -bpred:bimod 1024 tiled_mergesort1786040351
	sim-bpred -bpred bimod -bpred:bimod 2048 tiled_mergesort1786040351
	sim-bpred -bpred 2lev -bpred:2lev 1 512 10 1 tiled_mergesort1786040351
	sim-bpred -bpred 2lev -bpred:2lev 1 1024 10 1 tiled_mergesort1786040351
	sim-bpred -bpred 2lev -bpred:2lev 1 2048 10 1 tiled_mergesort1786040351
	sim-bpred -bpred 2lev -bpred:2lev 1 4096 10 1 tiled_mergesort1786040351
	sslittle-na-sstrix-gcc -Wall -O3 -funroll-loops -finline-functions  -DRANDOM_SIZE=1048576 -DOFFSET=2 -DSORT=tiled_mergesort sorts/tiled_mergesort1142994998.c simpleMain.c -o tiled_mergesort1786040351
	sim-cache -cache:dl1 dl1:256:32:1:l -cache:dl2 dl2:131072:32:1:l -cache:il1 il1:256:32:1:l -cache:il2 dl2 tiled_mergesort1786040351
	sim-cache -cache:dl1 dl1:256:32:1:l -cache:dl2 dl2:65536:32:1:l -cache:il1 il1:256:32:1:l -cache:il2 dl2 tiled_mergesort1786040351
	sim-cache -cache:dl1 dl1:1:32:256:l -cache:dl2 dl2:1:32:131072:l -cache:il1 il1:1:32:256:l -cache:il2 dl2 tiled_mergesort1786040351
	sim-cache -cache:dl1 dl1:1:32:256:l -cache:dl2 dl2:1:32:65536:l -cache:il1 il1:1:32:256:l -cache:il2 dl2 tiled_mergesort1786040351
	sim-bpred -bpred bimod -bpred:bimod 512 tiled_mergesort1786040351
	sim-bpred -bpred bimod -bpred:bimod 1024 tiled_mergesort1786040351
	sim-bpred -bpred bimod -bpred:bimod 2048 tiled_mergesort1786040351
	sim-bpred -bpred 2lev -bpred:2lev 1 512 10 1 tiled_mergesort1786040351
	sim-bpred -bpred 2lev -bpred:2lev 1 1024 10 1 tiled_mergesort1786040351
	sim-bpred -bpred 2lev -bpred:2lev 1 2048 10 1 tiled_mergesort1786040351
	sim-bpred -bpred 2lev -bpred:2lev 1 4096 10 1 tiled_mergesort1786040351
	sslittle-na-sstrix-gcc -Wall -O3 -funroll-loops -finline-functions  -DRANDOM_SIZE=2097152 -DOFFSET=2 -DSORT=tiled_mergesort sorts/tiled_mergesort1142994998.c simpleMain.c -o tiled_mergesort1786040351
	sim-cache -cache:dl1 dl1:256:32:1:l -cache:dl2 dl2:131072:32:1:l -cache:il1 il1:256:32:1:l -cache:il2 dl2 tiled_mergesort1786040351
	sim-cache -cache:dl1 dl1:256:32:1:l -cache:dl2 dl2:65536:32:1:l -cache:il1 il1:256:32:1:l -cache:il2 dl2 tiled_mergesort1786040351
	sim-cache -cache:dl1 dl1:1:32:256:l -cache:dl2 dl2:1:32:131072:l -cache:il1 il1:1:32:256:l -cache:il2 dl2 tiled_mergesort1786040351
	sim-cache -cache:dl1 dl1:1:32:256:l -cache:dl2 dl2:1:32:65536:l -cache:il1 il1:1:32:256:l -cache:il2 dl2 tiled_mergesort1786040351
	sim-bpred -bpred bimod -bpred:bimod 512 tiled_mergesort1786040351
	sim-bpred -bpred bimod -bpred:bimod 1024 tiled_mergesort1786040351
	sim-bpred -bpred bimod -bpred:bimod 2048 tiled_mergesort1786040351
	sim-bpred -bpred 2lev -bpred:2lev 1 512 10 1 tiled_mergesort1786040351
	sim-bpred -bpred 2lev -bpred:2lev 1 1024 10 1 tiled_mergesort1786040351
	sim-bpred -bpred 2lev -bpred:2lev 1 2048 10 1 tiled_mergesort1786040351
	sim-bpred -bpred 2lev -bpred:2lev 1 4096 10 1 tiled_mergesort1786040351
	sslittle-na-sstrix-gcc -Wall -O3 -funroll-loops -finline-functions  -DRANDOM_SIZE=4194304 -DOFFSET=2 -DSORT=tiled_mergesort sorts/tiled_mergesort1142994998.c simpleMain.c -o tiled_mergesort1786040351
	sim-cache -cache:dl1 dl1:256:32:1:l -cache:dl2 dl2:131072:32:1:l -cache:il1 il1:256:32:1:l -cache:il2 dl2 tiled_mergesort1786040351
	sim-cache -cache:dl1 dl1:256:32:1:l -cache:dl2 dl2:65536:32:1:l -cache:il1 il1:256:32:1:l -cache:il2 dl2 tiled_mergesort1786040351
	sim-cache -cache:dl1 dl1:1:32:256:l -cache:dl2 dl2:1:32:131072:l -cache:il1 il1:1:32:256:l -cache:il2 dl2 tiled_mergesort1786040351
	sim-cache -cache:dl1 dl1:1:32:256:l -cache:dl2 dl2:1:32:65536:l -cache:il1 il1:1:32:256:l -cache:il2 dl2 tiled_mergesort1786040351
	sim-bpred -bpred bimod -bpred:bimod 512 tiled_mergesort1786040351
	sim-bpred -bpred bimod -bpred:bimod 1024 tiled_mergesort1786040351
	sim-bpred -bpred bimod -bpred:bimod 2048 tiled_mergesort1786040351
	sim-bpred -bpred 2lev -bpred:2lev 1 512 10 1 tiled_mergesort1786040351
	sim-bpred -bpred 2lev -bpred:2lev 1 1024 10 1 tiled_mergesort1786040351
	sim-bpred -bpred 2lev -bpred:2lev 1 2048 10 1 tiled_mergesort1786040351
	sim-bpred -bpred 2lev -bpred:2lev 1 4096 10 1 tiled_mergesort1786040351
