Sun Jul 31 12:45:37 2005
Run as: "./do_simple -c random.org8 -o 8 tiled_mergesort"
-------------------------------------------------------------------------------------------------
sim-cache                                     4096 |         4096 |         4096 |         4096 |         8192 |         8192 |         8192 |         8192 |        16384 |        16384 |        16384 |        16384 |        32768 |        32768 |        32768 |        32768 |        65536 |        65536 |        65536 |        65536 |       131072 |       131072 |       131072 |       131072 |       262144 |       262144 |       262144 |       262144 |       524288 |       524288 |       524288 |       524288 |      1048576 |      1048576 |      1048576 |      1048576 |      2097152 |      2097152 |      2097152 |      2097152 |      4194304 |      4194304 |      4194304 |      4194304 |
-cache:dl1 dl1:256:32:1:l -cache:dl2 dl2:131072:32:1:l -cache:il1 il1:256:32:1:l -cache:il2 dl2
-cache:dl1 dl1:256:32:1:l -cache:dl2 dl2:65536:32:1:l -cache:il1 il1:256:32:1:l -cache:il2 dl2
-cache:dl1 dl1:1:32:256:l -cache:dl2 dl2:1:32:131072:l -cache:il1 il1:1:32:256:l -cache:il2 dl2
-cache:dl1 dl1:1:32:256:l -cache:dl2 dl2:1:32:65536:l -cache:il1 il1:1:32:256:l -cache:il2 dl2
-------------------------------------------------------------------------------------------------
sim_num_insn                                858192 |       858192 |       858192 |       858192 |      1747550 |      1747550 |      1747550 |      1747550 |      3957592 |      3957592 |      3957592 |      3957592 |      8062328 |      8062328 |      8062328 |      8062328 |     17976780 |     17976780 |     17976780 |     17976780 |     36558952 |     36558952 |     36558952 |     36558952 |     80549367 |     80549367 |     80549367 |     80549367 |    168437359 |    168437359 |    168437359 |    168437359 |    366572180 |    366572180 |    366572180 |    366572180 |    742933458 |    742933458 |    742933458 |    742933458 |   1604678764 |   1604678764 |   1604678764 |   1604678764 |
sim_num_refs                                228632 |       228632 |       228632 |       228632 |       471308 |       471308 |       471308 |       471308 |      1051200 |      1051200 |      1051200 |      1051200 |      2170689 |      2170689 |      2170689 |      2170689 |      4783504 |      4783504 |      4783504 |      4783504 |      9852371 |      9852371 |      9852371 |      9852371 |     21483778 |     21483778 |     21483778 |     21483778 |     45709315 |     45709315 |     45709315 |     45709315 |     98529483 |     98529483 |     98529483 |     98529483 |    201678122 |    201678122 |    201678122 |    201678122 |    431834869 |    431834869 |    431834869 |    431834869 |
sim_elapsed_time                                 1 |            1 |           10 |            6 |            1 |            1 |           16 |            8 |            1 |            1 |           27 |           14 |            2 |            2 |           48 |           24 |            5 |            5 |           89 |           45 |           10 |           10 |          163 |           76 |           22 |           21 |          280 |          108 |           46 |           46 |          387 |          134 |           99 |           99 |          443 |          192 |          201 |          201 |          555 |          304 |          434 |          433 |          809 |          559 |
sim_inst_rate                          858192.0000 |  858192.0000 |   85819.2000 |  143032.0000 | 1747550.0000 | 1747550.0000 |  109221.8750 |  218443.7500 | 3957592.0000 | 3957592.0000 |  146577.4815 |  282685.1429 | 4031164.0000 | 4031164.0000 |  167965.1667 |  335930.3333 | 3595356.0000 | 3595356.0000 |  201986.2921 |  399484.0000 | 3655895.2000 | 3655895.2000 |  224288.0491 |  481038.8421 | 3661334.8636 | 3835684.1429 |  287676.3107 |  745827.4722 | 3661681.7174 | 3661681.7174 |  435238.6537 | 1256995.2164 | 3702749.2929 | 3702749.2929 |  827476.7043 | 1909230.1042 | 3696186.3582 | 3696186.3582 | 1338618.8432 | 2443860.0592 | 3697416.5069 | 3705955.5751 | 1983533.7009 | 2870623.9070 |
il1.accesses                                858192 |       858192 |       858192 |       858192 |      1747550 |      1747550 |      1747550 |      1747550 |      3957592 |      3957592 |      3957592 |      3957592 |      8062328 |      8062328 |      8062328 |      8062328 |     17976780 |     17976780 |     17976780 |     17976780 |     36558952 |     36558952 |     36558952 |     36558952 |     80549367 |     80549367 |     80549367 |     80549367 |    168437359 |    168437359 |    168437359 |    168437359 |    366572180 |    366572180 |    366572180 |    366572180 |    742933458 |    742933458 |    742933458 |    742933458 |   1604678764 |   1604678764 |   1604678764 |   1604678764 |
il1.hits                                    857522 |       857522 |       857617 |       857617 |      1746859 |      1746859 |      1746951 |      1746951 |      3956918 |      3956918 |      3957018 |      3957018 |      8061637 |      8061637 |      8061729 |      8061729 |     17976107 |     17976107 |     17976202 |     17976202 |     36558259 |     36558259 |     36558352 |     36558352 |     80548694 |     80548694 |     80548790 |     80548790 |    168435079 |    168435079 |    168436685 |    168436685 |    366568374 |    366568374 |    366571524 |    366571524 |    742926534 |    742926534 |    742932784 |    742932784 |   1604665694 |   1604665694 |   1604678108 |   1604678108 |
il1.misses                                     670 |          670 |          575 |          575 |          691 |          691 |          599 |          599 |          674 |          674 |          574 |          574 |          691 |          691 |          599 |          599 |          673 |          673 |          578 |          578 |          693 |          693 |          600 |          600 |          673 |          673 |          577 |          577 |         2280 |         2280 |          674 |          674 |         3806 |         3806 |          656 |          656 |         6924 |         6924 |          674 |          674 |        13070 |        13070 |          656 |          656 |
il1.replacements                               427 |          427 |          319 |          319 |          447 |          447 |          343 |          343 |          433 |          433 |          318 |          318 |          447 |          447 |          343 |          343 |          431 |          431 |          322 |          322 |          449 |          449 |          344 |          344 |          444 |          444 |          321 |          321 |         2055 |         2055 |          418 |          418 |         3583 |         3583 |          400 |          400 |         6699 |         6699 |          418 |          418 |        12847 |        12847 |          400 |          400 |
il1.writebacks                                   0 |            0 |            0 |            0 |            0 |            0 |            0 |            0 |            0 |            0 |            0 |            0 |            0 |            0 |            0 |            0 |            0 |            0 |            0 |            0 |            0 |            0 |            0 |            0 |            0 |            0 |            0 |            0 |            0 |            0 |            0 |            0 |            0 |            0 |            0 |            0 |            0 |            0 |            0 |            0 |            0 |            0 |            0 |            0 |
il1.invalidations                                0 |            0 |            0 |            0 |            0 |            0 |            0 |            0 |            0 |            0 |            0 |            0 |            0 |            0 |            0 |            0 |            0 |            0 |            0 |            0 |            0 |            0 |            0 |            0 |            0 |            0 |            0 |            0 |            0 |            0 |            0 |            0 |            0 |            0 |            0 |            0 |            0 |            0 |            0 |            0 |            0 |            0 |            0 |            0 |
il1.miss_rate                               0.0008 |       0.0008 |       0.0007 |       0.0007 |       0.0004 |       0.0004 |       0.0003 |       0.0003 |       0.0002 |       0.0002 |       0.0001 |       0.0001 |       0.0001 |       0.0001 |       0.0001 |       0.0001 |       0.0000 |       0.0000 |       0.0000 |       0.0000 |       0.0000 |       0.0000 |       0.0000 |       0.0000 |       0.0000 |       0.0000 |       0.0000 |       0.0000 |       0.0000 |       0.0000 |       0.0000 |       0.0000 |       0.0000 |       0.0000 |       0.0000 |       0.0000 |       0.0000 |       0.0000 |       0.0000 |       0.0000 |       0.0000 |       0.0000 |       0.0000 |       0.0000 |
il1.repl_rate                               0.0005 |       0.0005 |       0.0004 |       0.0004 |       0.0003 |       0.0003 |       0.0002 |       0.0002 |       0.0001 |       0.0001 |       0.0001 |       0.0001 |       0.0001 |       0.0001 |       0.0000 |       0.0000 |       0.0000 |       0.0000 |       0.0000 |       0.0000 |       0.0000 |       0.0000 |       0.0000 |       0.0000 |       0.0000 |       0.0000 |       0.0000 |       0.0000 |       0.0000 |       0.0000 |       0.0000 |       0.0000 |       0.0000 |       0.0000 |       0.0000 |       0.0000 |       0.0000 |       0.0000 |       0.0000 |       0.0000 |       0.0000 |       0.0000 |       0.0000 |       0.0000 |
il1.wb_rate                                 0.0000 |       0.0000 |       0.0000 |       0.0000 |       0.0000 |       0.0000 |       0.0000 |       0.0000 |       0.0000 |       0.0000 |       0.0000 |       0.0000 |       0.0000 |       0.0000 |       0.0000 |       0.0000 |       0.0000 |       0.0000 |       0.0000 |       0.0000 |       0.0000 |       0.0000 |       0.0000 |       0.0000 |       0.0000 |       0.0000 |       0.0000 |       0.0000 |       0.0000 |       0.0000 |       0.0000 |       0.0000 |       0.0000 |       0.0000 |       0.0000 |       0.0000 |       0.0000 |       0.0000 |       0.0000 |       0.0000 |       0.0000 |       0.0000 |       0.0000 |       0.0000 |
il1.inv_rate                                0.0000 |       0.0000 |       0.0000 |       0.0000 |       0.0000 |       0.0000 |       0.0000 |       0.0000 |       0.0000 |       0.0000 |       0.0000 |       0.0000 |       0.0000 |       0.0000 |       0.0000 |       0.0000 |       0.0000 |       0.0000 |       0.0000 |       0.0000 |       0.0000 |       0.0000 |       0.0000 |       0.0000 |       0.0000 |       0.0000 |       0.0000 |       0.0000 |       0.0000 |       0.0000 |       0.0000 |       0.0000 |       0.0000 |       0.0000 |       0.0000 |       0.0000 |       0.0000 |       0.0000 |       0.0000 |       0.0000 |       0.0000 |       0.0000 |       0.0000 |       0.0000 |
dl1.accesses                                245098 |       245098 |       245098 |       245098 |       504158 |       504158 |       504158 |       504158 |      1116818 |      1116818 |      1116818 |      1116818 |      2301843 |      2301843 |      2301843 |      2301843 |      5045730 |      5045730 |      5045730 |      5045730 |     10376741 |     10376741 |     10376741 |     10376741 |     22532436 |     22532436 |     22532436 |     22532436 |     47806549 |     47806549 |     47806549 |     47806549 |    102723869 |    102723869 |    102723869 |    102723869 |    210066812 |    210066812 |    210066812 |    210066812 |    448612167 |    448612167 |    448612167 |    448612167 |
dl1.hits                                    217475 |       217475 |       238135 |       238135 |       454829 |       454829 |       489952 |       489952 |       998359 |       998359 |      1082205 |      1082205 |      2087250 |      2087250 |      2230049 |      2230049 |      4536550 |      4536550 |      4876044 |      4876044 |      9446330 |      9446330 |     10025418 |     10025418 |     20352641 |     20352641 |     21724296 |     21724296 |     43461503 |     43461503 |     46008455 |     46008455 |     92757139 |     92757139 |     98704981 |     98704981 |    191532961 |    191532961 |    201830683 |    201830683 |    406416984 |    406416984 |    430443097 |    430443097 |
dl1.misses                                   27623 |        27623 |         6963 |         6963 |        49329 |        49329 |        14206 |        14206 |       118459 |       118459 |        34613 |        34613 |       214593 |       214593 |        71794 |        71794 |       509180 |       509180 |       169686 |       169686 |       930411 |       930411 |       351323 |       351323 |      2179795 |      2179795 |       808140 |       808140 |      4345046 |      4345046 |      1798094 |      1798094 |      9966730 |      9966730 |      4018888 |      4018888 |     18533851 |     18533851 |      8236129 |      8236129 |     42195183 |     42195183 |     18169070 |     18169070 |
dl1.replacements                             27367 |        27367 |         6707 |         6707 |        49073 |        49073 |        13950 |        13950 |       118203 |       118203 |        34357 |        34357 |       214337 |       214337 |        71538 |        71538 |       508924 |       508924 |       169430 |       169430 |       930155 |       930155 |       351067 |       351067 |      2179539 |      2179539 |       807884 |       807884 |      4344790 |      4344790 |      1797838 |      1797838 |      9966474 |      9966474 |      4018632 |      4018632 |     18533595 |     18533595 |      8235873 |      8235873 |     42194927 |     42194927 |     18168814 |     18168814 |
dl1.writebacks                               14857 |        14857 |         5071 |         5071 |        26817 |        26817 |         9790 |         9790 |        63362 |        63362 |        23428 |        23428 |       115594 |       115594 |        46378 |        46378 |       270086 |       270086 |       108994 |       108994 |       496428 |       496428 |       217414 |       217414 |      1148175 |      1148175 |       500414 |       500414 |      2289445 |      2289445 |      1065938 |      1065938 |      5199122 |      5199122 |      2394957 |      2394957 |      9707167 |      9707167 |      4785045 |      4785045 |     21904130 |     21904130 |     10626395 |     10626395 |
dl1.invalidations                                0 |            0 |            0 |            0 |            0 |            0 |            0 |            0 |            0 |            0 |            0 |            0 |            0 |            0 |            0 |            0 |            0 |            0 |            0 |            0 |            0 |            0 |            0 |            0 |            0 |            0 |            0 |            0 |            0 |            0 |            0 |            0 |            0 |            0 |            0 |            0 |            0 |            0 |            0 |            0 |            0 |            0 |            0 |            0 |
dl1.miss_rate                               0.1127 |       0.1127 |       0.0284 |       0.0284 |       0.0978 |       0.0978 |       0.0282 |       0.0282 |       0.1061 |       0.1061 |       0.0310 |       0.0310 |       0.0932 |       0.0932 |       0.0312 |       0.0312 |       0.1009 |       0.1009 |       0.0336 |       0.0336 |       0.0897 |       0.0897 |       0.0339 |       0.0339 |       0.0967 |       0.0967 |       0.0359 |       0.0359 |       0.0909 |       0.0909 |       0.0376 |       0.0376 |       0.0970 |       0.0970 |       0.0391 |       0.0391 |       0.0882 |       0.0882 |       0.0392 |       0.0392 |       0.0941 |       0.0941 |       0.0405 |       0.0405 |
dl1.repl_rate                               0.1117 |       0.1117 |       0.0274 |       0.0274 |       0.0973 |       0.0973 |       0.0277 |       0.0277 |       0.1058 |       0.1058 |       0.0308 |       0.0308 |       0.0931 |       0.0931 |       0.0311 |       0.0311 |       0.1009 |       0.1009 |       0.0336 |       0.0336 |       0.0896 |       0.0896 |       0.0338 |       0.0338 |       0.0967 |       0.0967 |       0.0359 |       0.0359 |       0.0909 |       0.0909 |       0.0376 |       0.0376 |       0.0970 |       0.0970 |       0.0391 |       0.0391 |       0.0882 |       0.0882 |       0.0392 |       0.0392 |       0.0941 |       0.0941 |       0.0405 |       0.0405 |
dl1.wb_rate                                 0.0606 |       0.0606 |       0.0207 |       0.0207 |       0.0532 |       0.0532 |       0.0194 |       0.0194 |       0.0567 |       0.0567 |       0.0210 |       0.0210 |       0.0502 |       0.0502 |       0.0201 |       0.0201 |       0.0535 |       0.0535 |       0.0216 |       0.0216 |       0.0478 |       0.0478 |       0.0210 |       0.0210 |       0.0510 |       0.0510 |       0.0222 |       0.0222 |       0.0479 |       0.0479 |       0.0223 |       0.0223 |       0.0506 |       0.0506 |       0.0233 |       0.0233 |       0.0462 |       0.0462 |       0.0228 |       0.0228 |       0.0488 |       0.0488 |       0.0237 |       0.0237 |
dl1.inv_rate                                0.0000 |       0.0000 |       0.0000 |       0.0000 |       0.0000 |       0.0000 |       0.0000 |       0.0000 |       0.0000 |       0.0000 |       0.0000 |       0.0000 |       0.0000 |       0.0000 |       0.0000 |       0.0000 |       0.0000 |       0.0000 |       0.0000 |       0.0000 |       0.0000 |       0.0000 |       0.0000 |       0.0000 |       0.0000 |       0.0000 |       0.0000 |       0.0000 |       0.0000 |       0.0000 |       0.0000 |       0.0000 |       0.0000 |       0.0000 |       0.0000 |       0.0000 |       0.0000 |       0.0000 |       0.0000 |       0.0000 |       0.0000 |       0.0000 |       0.0000 |       0.0000 |
dl2.accesses                                 43150 |        43150 |        12609 |        12609 |        76837 |        76837 |        24595 |        24595 |       182495 |       182495 |        58615 |        58615 |       330878 |       330878 |       118771 |       118771 |       779939 |       779939 |       279258 |       279258 |      1427532 |      1427532 |       569337 |       569337 |      3328643 |      3328643 |      1309131 |      1309131 |      6636771 |      6636771 |      2864706 |      2864706 |     15169658 |     15169658 |      6414501 |      6414501 |     28247942 |     28247942 |     13021848 |     13021848 |     64112383 |     64112383 |     28796121 |     28796121 |
dl2.hits                                     41173 |        41173 |        10650 |        10650 |        73816 |        73816 |        21593 |        21593 |       177447 |       177447 |        53585 |        53585 |       321713 |       321713 |       109624 |       109624 |       762599 |       762599 |       261936 |       261936 |      1393790 |      1393790 |       535614 |       535614 |      3262138 |      3262032 |      1242659 |      1206046 |      6394630 |      6229212 |      2697423 |      2343140 |     14194449 |     13987593 |      5233032 |      5111756 |     25382744 |     25360421 |     10135588 |      9894236 |     57290669 |     57289231 |     21976152 |     21493451 |
dl2.misses                                    1977 |         1977 |         1959 |         1959 |         3021 |         3021 |         3002 |         3002 |         5048 |         5048 |         5030 |         5030 |         9165 |         9165 |         9147 |         9147 |        17340 |        17340 |        17322 |        17322 |        33742 |        33742 |        33723 |        33723 |        66505 |        66611 |        66472 |       103085 |       242141 |       407559 |       167283 |       521566 |       975209 |      1182065 |      1181469 |      1302745 |      2865198 |      2887521 |      2886260 |      3127612 |      6821714 |      6823152 |      6819969 |      7302670 |
dl2.replacements                               165 |          165 |            0 |            0 |          184 |          184 |            0 |            0 |          166 |          166 |            0 |            0 |          184 |          184 |            0 |            0 |          168 |          168 |            0 |            0 |          184 |          184 |            0 |            0 |          192 |         1075 |            0 |        37549 |       142424 |       342023 |        36211 |       456030 |       844137 |      1116529 |      1050397 |      1237209 |      2734126 |      2821985 |      2755188 |      3062076 |      6690642 |      6757616 |      6688897 |      7237134 |
dl2.writebacks                                 114 |          114 |            0 |            0 |          131 |          131 |            0 |            0 |          114 |          114 |            0 |            0 |          131 |          131 |            0 |            0 |          115 |          115 |            0 |            0 |          131 |          131 |            0 |            0 |          136 |          698 |            0 |        37109 |        98603 |       264984 |        35742 |       356981 |       723091 |       755285 |       722136 |       875943 |      1804724 |      1804887 |      1771483 |      2045244 |      4165933 |      4166331 |      4132322 |      4647097 |
dl2.invalidations                                0 |            0 |            0 |            0 |            0 |            0 |            0 |            0 |            0 |            0 |            0 |            0 |            0 |            0 |            0 |            0 |            0 |            0 |            0 |            0 |            0 |            0 |            0 |            0 |            0 |            0 |            0 |            0 |            0 |            0 |            0 |            0 |            0 |            0 |            0 |            0 |            0 |            0 |            0 |            0 |            0 |            0 |            0 |            0 |
dl2.miss_rate                               0.0458 |       0.0458 |       0.1554 |       0.1554 |       0.0393 |       0.0393 |       0.1221 |       0.1221 |       0.0277 |       0.0277 |       0.0858 |       0.0858 |       0.0277 |       0.0277 |       0.0770 |       0.0770 |       0.0222 |       0.0222 |       0.0620 |       0.0620 |       0.0236 |       0.0236 |       0.0592 |       0.0592 |       0.0200 |       0.0200 |       0.0508 |       0.0787 |       0.0365 |       0.0614 |       0.0584 |       0.1821 |       0.0643 |       0.0779 |       0.1842 |       0.2031 |       0.1014 |       0.1022 |       0.2216 |       0.2402 |       0.1064 |       0.1064 |       0.2368 |       0.2536 |
dl2.repl_rate                               0.0038 |       0.0038 |       0.0000 |       0.0000 |       0.0024 |       0.0024 |       0.0000 |       0.0000 |       0.0009 |       0.0009 |       0.0000 |       0.0000 |       0.0006 |       0.0006 |       0.0000 |       0.0000 |       0.0002 |       0.0002 |       0.0000 |       0.0000 |       0.0001 |       0.0001 |       0.0000 |       0.0000 |       0.0001 |       0.0003 |       0.0000 |       0.0287 |       0.0215 |       0.0515 |       0.0126 |       0.1592 |       0.0556 |       0.0736 |       0.1638 |       0.1929 |       0.0968 |       0.0999 |       0.2116 |       0.2351 |       0.1044 |       0.1054 |       0.2323 |       0.2513 |
dl2.wb_rate                                 0.0026 |       0.0026 |       0.0000 |       0.0000 |       0.0017 |       0.0017 |       0.0000 |       0.0000 |       0.0006 |       0.0006 |       0.0000 |       0.0000 |       0.0004 |       0.0004 |       0.0000 |       0.0000 |       0.0001 |       0.0001 |       0.0000 |       0.0000 |       0.0001 |       0.0001 |       0.0000 |       0.0000 |       0.0000 |       0.0002 |       0.0000 |       0.0283 |       0.0149 |       0.0399 |       0.0125 |       0.1246 |       0.0477 |       0.0498 |       0.1126 |       0.1366 |       0.0639 |       0.0639 |       0.1360 |       0.1571 |       0.0650 |       0.0650 |       0.1435 |       0.1614 |
dl2.inv_rate                                0.0000 |       0.0000 |       0.0000 |       0.0000 |       0.0000 |       0.0000 |       0.0000 |       0.0000 |       0.0000 |       0.0000 |       0.0000 |       0.0000 |       0.0000 |       0.0000 |       0.0000 |       0.0000 |       0.0000 |       0.0000 |       0.0000 |       0.0000 |       0.0000 |       0.0000 |       0.0000 |       0.0000 |       0.0000 |       0.0000 |       0.0000 |       0.0000 |       0.0000 |       0.0000 |       0.0000 |       0.0000 |       0.0000 |       0.0000 |       0.0000 |       0.0000 |       0.0000 |       0.0000 |       0.0000 |       0.0000 |       0.0000 |       0.0000 |       0.0000 |       0.0000 |
itlb.accesses                               858192 |       858192 |       858192 |       858192 |      1747550 |      1747550 |      1747550 |      1747550 |      3957592 |      3957592 |      3957592 |      3957592 |      8062328 |      8062328 |      8062328 |      8062328 |     17976780 |     17976780 |     17976780 |     17976780 |     36558952 |     36558952 |     36558952 |     36558952 |     80549367 |     80549367 |     80549367 |     80549367 |    168437359 |    168437359 |    168437359 |    168437359 |    366572180 |    366572180 |    366572180 |    366572180 |    742933458 |    742933458 |    742933458 |    742933458 |   1604678764 |   1604678764 |   1604678764 |   1604678764 |
itlb.hits                                   858180 |       858180 |       858180 |       858180 |      1747538 |      1747538 |      1747538 |      1747538 |      3957580 |      3957580 |      3957580 |      3957580 |      8062316 |      8062316 |      8062316 |      8062316 |     17976768 |     17976768 |     17976768 |     17976768 |     36558940 |     36558940 |     36558940 |     36558940 |     80549355 |     80549355 |     80549355 |     80549355 |    168437347 |    168437347 |    168437347 |    168437347 |    366572168 |    366572168 |    366572168 |    366572168 |    742933446 |    742933446 |    742933446 |    742933446 |   1604678752 |   1604678752 |   1604678752 |   1604678752 |
itlb.misses                                     12 |           12 |           12 |           12 |           12 |           12 |           12 |           12 |           12 |           12 |           12 |           12 |           12 |           12 |           12 |           12 |           12 |           12 |           12 |           12 |           12 |           12 |           12 |           12 |           12 |           12 |           12 |           12 |           12 |           12 |           12 |           12 |           12 |           12 |           12 |           12 |           12 |           12 |           12 |           12 |           12 |           12 |           12 |           12 |
itlb.replacements                                0 |            0 |            0 |            0 |            0 |            0 |            0 |            0 |            0 |            0 |            0 |            0 |            0 |            0 |            0 |            0 |            0 |            0 |            0 |            0 |            0 |            0 |            0 |            0 |            0 |            0 |            0 |            0 |            0 |            0 |            0 |            0 |            0 |            0 |            0 |            0 |            0 |            0 |            0 |            0 |            0 |            0 |            0 |            0 |
itlb.writebacks                                  0 |            0 |            0 |            0 |            0 |            0 |            0 |            0 |            0 |            0 |            0 |            0 |            0 |            0 |            0 |            0 |            0 |            0 |            0 |            0 |            0 |            0 |            0 |            0 |            0 |            0 |            0 |            0 |            0 |            0 |            0 |            0 |            0 |            0 |            0 |            0 |            0 |            0 |            0 |            0 |            0 |            0 |            0 |            0 |
itlb.invalidations                               0 |            0 |            0 |            0 |            0 |            0 |            0 |            0 |            0 |            0 |            0 |            0 |            0 |            0 |            0 |            0 |            0 |            0 |            0 |            0 |            0 |            0 |            0 |            0 |            0 |            0 |            0 |            0 |            0 |            0 |            0 |            0 |            0 |            0 |            0 |            0 |            0 |            0 |            0 |            0 |            0 |            0 |            0 |            0 |
itlb.miss_rate                              0.0000 |       0.0000 |       0.0000 |       0.0000 |       0.0000 |       0.0000 |       0.0000 |       0.0000 |       0.0000 |       0.0000 |       0.0000 |       0.0000 |       0.0000 |       0.0000 |       0.0000 |       0.0000 |       0.0000 |       0.0000 |       0.0000 |       0.0000 |       0.0000 |       0.0000 |       0.0000 |       0.0000 |       0.0000 |       0.0000 |       0.0000 |       0.0000 |       0.0000 |       0.0000 |       0.0000 |       0.0000 |       0.0000 |       0.0000 |       0.0000 |       0.0000 |       0.0000 |       0.0000 |       0.0000 |       0.0000 |       0.0000 |       0.0000 |       0.0000 |       0.0000 |
itlb.repl_rate                              0.0000 |       0.0000 |       0.0000 |       0.0000 |       0.0000 |       0.0000 |       0.0000 |       0.0000 |       0.0000 |       0.0000 |       0.0000 |       0.0000 |       0.0000 |       0.0000 |       0.0000 |       0.0000 |       0.0000 |       0.0000 |       0.0000 |       0.0000 |       0.0000 |       0.0000 |       0.0000 |       0.0000 |       0.0000 |       0.0000 |       0.0000 |       0.0000 |       0.0000 |       0.0000 |       0.0000 |       0.0000 |       0.0000 |       0.0000 |       0.0000 |       0.0000 |       0.0000 |       0.0000 |       0.0000 |       0.0000 |       0.0000 |       0.0000 |       0.0000 |       0.0000 |
itlb.wb_rate                                0.0000 |       0.0000 |       0.0000 |       0.0000 |       0.0000 |       0.0000 |       0.0000 |       0.0000 |       0.0000 |       0.0000 |       0.0000 |       0.0000 |       0.0000 |       0.0000 |       0.0000 |       0.0000 |       0.0000 |       0.0000 |       0.0000 |       0.0000 |       0.0000 |       0.0000 |       0.0000 |       0.0000 |       0.0000 |       0.0000 |       0.0000 |       0.0000 |       0.0000 |       0.0000 |       0.0000 |       0.0000 |       0.0000 |       0.0000 |       0.0000 |       0.0000 |       0.0000 |       0.0000 |       0.0000 |       0.0000 |       0.0000 |       0.0000 |       0.0000 |       0.0000 |
itlb.inv_rate                               0.0000 |       0.0000 |       0.0000 |       0.0000 |       0.0000 |       0.0000 |       0.0000 |       0.0000 |       0.0000 |       0.0000 |       0.0000 |       0.0000 |       0.0000 |       0.0000 |       0.0000 |       0.0000 |       0.0000 |       0.0000 |       0.0000 |       0.0000 |       0.0000 |       0.0000 |       0.0000 |       0.0000 |       0.0000 |       0.0000 |       0.0000 |       0.0000 |       0.0000 |       0.0000 |       0.0000 |       0.0000 |       0.0000 |       0.0000 |       0.0000 |       0.0000 |       0.0000 |       0.0000 |       0.0000 |       0.0000 |       0.0000 |       0.0000 |       0.0000 |       0.0000 |
dtlb.accesses                               245098 |       245098 |       245098 |       245098 |       504158 |       504158 |       504158 |       504158 |      1116818 |      1116818 |      1116818 |      1116818 |      2301843 |      2301843 |      2301843 |      2301843 |      5045730 |      5045730 |      5045730 |      5045730 |     10376741 |     10376741 |     10376741 |     10376741 |     22532436 |     22532436 |     22532436 |     22532436 |     47806549 |     47806549 |     47806549 |     47806549 |    102723869 |    102723869 |    102723869 |    102723869 |    210066812 |    210066812 |    210066812 |    210066812 |    448612167 |    448612167 |    448612167 |    448612167 |
dtlb.hits                                   245082 |       245082 |       245082 |       245082 |       504134 |       504134 |       504134 |       504134 |      1116778 |      1116778 |      1116778 |      1116778 |      2301771 |      2301771 |      2301771 |      2301771 |      5045545 |      5045545 |      5045545 |      5045545 |     10374315 |     10374315 |     10374315 |     10374315 |     22527022 |     22527022 |     22527022 |     22527022 |     47793797 |     47793797 |     47793797 |     47793797 |    102696329 |    102696329 |    102696329 |    102696329 |    210007654 |    210007654 |    210007654 |    210007654 |    448485653 |    448485653 |    448485653 |    448485653 |
dtlb.misses                                     16 |           16 |           16 |           16 |           24 |           24 |           24 |           24 |           40 |           40 |           40 |           40 |           72 |           72 |           72 |           72 |          185 |          185 |          185 |          185 |         2426 |         2426 |         2426 |         2426 |         5414 |         5414 |         5414 |         5414 |        12752 |        12752 |        12752 |        12752 |        27540 |        27540 |        27540 |        27540 |        59158 |        59158 |        59158 |        59158 |       126514 |       126514 |       126514 |       126514 |
dtlb.replacements                                0 |            0 |            0 |            0 |            0 |            0 |            0 |            0 |            0 |            0 |            0 |            0 |            0 |            0 |            0 |            0 |           57 |           57 |           57 |           57 |         2298 |         2298 |         2298 |         2298 |         5286 |         5286 |         5286 |         5286 |        12624 |        12624 |        12624 |        12624 |        27412 |        27412 |        27412 |        27412 |        59030 |        59030 |        59030 |        59030 |       126386 |       126386 |       126386 |       126386 |
dtlb.writebacks                                  0 |            0 |            0 |            0 |            0 |            0 |            0 |            0 |            0 |            0 |            0 |            0 |            0 |            0 |            0 |            0 |           37 |           37 |           37 |           37 |         1333 |         1333 |         1333 |         1333 |         3029 |         3029 |         3029 |         3029 |         7088 |         7088 |         7088 |         7088 |        15254 |        15254 |        15254 |        15254 |        32613 |        32613 |        32613 |        32613 |        69382 |        69382 |        69382 |        69382 |
dtlb.invalidations                               0 |            0 |            0 |            0 |            0 |            0 |            0 |            0 |            0 |            0 |            0 |            0 |            0 |            0 |            0 |            0 |            0 |            0 |            0 |            0 |            0 |            0 |            0 |            0 |            0 |            0 |            0 |            0 |            0 |            0 |            0 |            0 |            0 |            0 |            0 |            0 |            0 |            0 |            0 |            0 |            0 |            0 |            0 |            0 |
dtlb.miss_rate                              0.0001 |       0.0001 |       0.0001 |       0.0001 |       0.0000 |       0.0000 |       0.0000 |       0.0000 |       0.0000 |       0.0000 |       0.0000 |       0.0000 |       0.0000 |       0.0000 |       0.0000 |       0.0000 |       0.0000 |       0.0000 |       0.0000 |       0.0000 |       0.0002 |       0.0002 |       0.0002 |       0.0002 |       0.0002 |       0.0002 |       0.0002 |       0.0002 |       0.0003 |       0.0003 |       0.0003 |       0.0003 |       0.0003 |       0.0003 |       0.0003 |       0.0003 |       0.0003 |       0.0003 |       0.0003 |       0.0003 |       0.0003 |       0.0003 |       0.0003 |       0.0003 |
dtlb.repl_rate                              0.0000 |       0.0000 |       0.0000 |       0.0000 |       0.0000 |       0.0000 |       0.0000 |       0.0000 |       0.0000 |       0.0000 |       0.0000 |       0.0000 |       0.0000 |       0.0000 |       0.0000 |       0.0000 |       0.0000 |       0.0000 |       0.0000 |       0.0000 |       0.0002 |       0.0002 |       0.0002 |       0.0002 |       0.0002 |       0.0002 |       0.0002 |       0.0002 |       0.0003 |       0.0003 |       0.0003 |       0.0003 |       0.0003 |       0.0003 |       0.0003 |       0.0003 |       0.0003 |       0.0003 |       0.0003 |       0.0003 |       0.0003 |       0.0003 |       0.0003 |       0.0003 |
dtlb.wb_rate                                0.0000 |       0.0000 |       0.0000 |       0.0000 |       0.0000 |       0.0000 |       0.0000 |       0.0000 |       0.0000 |       0.0000 |       0.0000 |       0.0000 |       0.0000 |       0.0000 |       0.0000 |       0.0000 |       0.0000 |       0.0000 |       0.0000 |       0.0000 |       0.0001 |       0.0001 |       0.0001 |       0.0001 |       0.0001 |       0.0001 |       0.0001 |       0.0001 |       0.0001 |       0.0001 |       0.0001 |       0.0001 |       0.0001 |       0.0001 |       0.0001 |       0.0001 |       0.0002 |       0.0002 |       0.0002 |       0.0002 |       0.0002 |       0.0002 |       0.0002 |       0.0002 |
dtlb.inv_rate                               0.0000 |       0.0000 |       0.0000 |       0.0000 |       0.0000 |       0.0000 |       0.0000 |       0.0000 |       0.0000 |       0.0000 |       0.0000 |       0.0000 |       0.0000 |       0.0000 |       0.0000 |       0.0000 |       0.0000 |       0.0000 |       0.0000 |       0.0000 |       0.0000 |       0.0000 |       0.0000 |       0.0000 |       0.0000 |       0.0000 |       0.0000 |       0.0000 |       0.0000 |       0.0000 |       0.0000 |       0.0000 |       0.0000 |       0.0000 |       0.0000 |       0.0000 |       0.0000 |       0.0000 |       0.0000 |       0.0000 |       0.0000 |       0.0000 |       0.0000 |       0.0000 |
ld_text_base                            0x00400000 |   0x00400000 |   0x00400000 |   0x00400000 |   0x00400000 |   0x00400000 |   0x00400000 |   0x00400000 |   0x00400000 |   0x00400000 |   0x00400000 |   0x00400000 |   0x00400000 |   0x00400000 |   0x00400000 |   0x00400000 |   0x00400000 |   0x00400000 |   0x00400000 |   0x00400000 |   0x00400000 |   0x00400000 |   0x00400000 |   0x00400000 |   0x00400000 |   0x00400000 |   0x00400000 |   0x00400000 |   0x00400000 |   0x00400000 |   0x00400000 |   0x00400000 |   0x00400000 |   0x00400000 |   0x00400000 |   0x00400000 |   0x00400000 |   0x00400000 |   0x00400000 |   0x00400000 |   0x00400000 |   0x00400000 |   0x00400000 |   0x00400000 |
ld_text_size                                 87648 |        87648 |        87648 |        87648 |        87680 |        87680 |        87680 |        87680 |        87696 |        87696 |        87696 |        87696 |        87712 |        87712 |        87712 |        87712 |        87712 |        87712 |        87712 |        87712 |        87712 |        87712 |        87712 |        87712 |        87712 |        87712 |        87712 |        87712 |        87712 |        87712 |        87712 |        87712 |        87712 |        87712 |        87712 |        87712 |        87712 |        87712 |        87712 |        87712 |        87712 |        87712 |        87712 |        87712 |
ld_data_base                            0x10000000 |   0x10000000 |   0x10000000 |   0x10000000 |   0x10000000 |   0x10000000 |   0x10000000 |   0x10000000 |   0x10000000 |   0x10000000 |   0x10000000 |   0x10000000 |   0x10000000 |   0x10000000 |   0x10000000 |   0x10000000 |   0x10000000 |   0x10000000 |   0x10000000 |   0x10000000 |   0x10000000 |   0x10000000 |   0x10000000 |   0x10000000 |   0x10000000 |   0x10000000 |   0x10000000 |   0x10000000 |   0x10000000 |   0x10000000 |   0x10000000 |   0x10000000 |   0x10000000 |   0x10000000 |   0x10000000 |   0x10000000 |   0x10000000 |   0x10000000 |   0x10000000 |   0x10000000 |   0x10000000 |   0x10000000 |   0x10000000 |   0x10000000 |
ld_data_size                                  8192 |         8192 |         8192 |         8192 |         8192 |         8192 |         8192 |         8192 |         8192 |         8192 |         8192 |         8192 |         8192 |         8192 |         8192 |         8192 |         8192 |         8192 |         8192 |         8192 |         8192 |         8192 |         8192 |         8192 |         8192 |         8192 |         8192 |         8192 |         8192 |         8192 |         8192 |         8192 |         8192 |         8192 |         8192 |         8192 |         8192 |         8192 |         8192 |         8192 |         8192 |         8192 |         8192 |         8192 |
ld_stack_base                           0x7fffc000 |   0x7fffc000 |   0x7fffc000 |   0x7fffc000 |   0x7fffc000 |   0x7fffc000 |   0x7fffc000 |   0x7fffc000 |   0x7fffc000 |   0x7fffc000 |   0x7fffc000 |   0x7fffc000 |   0x7fffc000 |   0x7fffc000 |   0x7fffc000 |   0x7fffc000 |   0x7fffc000 |   0x7fffc000 |   0x7fffc000 |   0x7fffc000 |   0x7fffc000 |   0x7fffc000 |   0x7fffc000 |   0x7fffc000 |   0x7fffc000 |   0x7fffc000 |   0x7fffc000 |   0x7fffc000 |   0x7fffc000 |   0x7fffc000 |   0x7fffc000 |   0x7fffc000 |   0x7fffc000 |   0x7fffc000 |   0x7fffc000 |   0x7fffc000 |   0x7fffc000 |   0x7fffc000 |   0x7fffc000 |   0x7fffc000 |   0x7fffc000 |   0x7fffc000 |   0x7fffc000 |   0x7fffc000 |
ld_stack_size                                16384 |        16384 |        16384 |        16384 |        16384 |        16384 |        16384 |        16384 |        16384 |        16384 |        16384 |        16384 |        16384 |        16384 |        16384 |        16384 |        16384 |        16384 |        16384 |        16384 |        16384 |        16384 |        16384 |        16384 |        16384 |        16384 |        16384 |        16384 |        16384 |        16384 |        16384 |        16384 |        16384 |        16384 |        16384 |        16384 |        16384 |        16384 |        16384 |        16384 |        16384 |        16384 |        16384 |        16384 |
ld_prog_entry                           0x00400140 |   0x00400140 |   0x00400140 |   0x00400140 |   0x00400140 |   0x00400140 |   0x00400140 |   0x00400140 |   0x00400140 |   0x00400140 |   0x00400140 |   0x00400140 |   0x00400140 |   0x00400140 |   0x00400140 |   0x00400140 |   0x00400140 |   0x00400140 |   0x00400140 |   0x00400140 |   0x00400140 |   0x00400140 |   0x00400140 |   0x00400140 |   0x00400140 |   0x00400140 |   0x00400140 |   0x00400140 |   0x00400140 |   0x00400140 |   0x00400140 |   0x00400140 |   0x00400140 |   0x00400140 |   0x00400140 |   0x00400140 |   0x00400140 |   0x00400140 |   0x00400140 |   0x00400140 |   0x00400140 |   0x00400140 |   0x00400140 |   0x00400140 |
ld_environ_base                         0x7fff8000 |   0x7fff8000 |   0x7fff8000 |   0x7fff8000 |   0x7fff8000 |   0x7fff8000 |   0x7fff8000 |   0x7fff8000 |   0x7fff8000 |   0x7fff8000 |   0x7fff8000 |   0x7fff8000 |   0x7fff8000 |   0x7fff8000 |   0x7fff8000 |   0x7fff8000 |   0x7fff8000 |   0x7fff8000 |   0x7fff8000 |   0x7fff8000 |   0x7fff8000 |   0x7fff8000 |   0x7fff8000 |   0x7fff8000 |   0x7fff8000 |   0x7fff8000 |   0x7fff8000 |   0x7fff8000 |   0x7fff8000 |   0x7fff8000 |   0x7fff8000 |   0x7fff8000 |   0x7fff8000 |   0x7fff8000 |   0x7fff8000 |   0x7fff8000 |   0x7fff8000 |   0x7fff8000 |   0x7fff8000 |   0x7fff8000 |   0x7fff8000 |   0x7fff8000 |   0x7fff8000 |   0x7fff8000 |
ld_target_big_endian                             0 |            0 |            0 |            0 |            0 |            0 |            0 |            0 |            0 |            0 |            0 |            0 |            0 |            0 |            0 |            0 |            0 |            0 |            0 |            0 |            0 |            0 |            0 |            0 |            0 |            0 |            0 |            0 |            0 |            0 |            0 |            0 |            0 |            0 |            0 |            0 |            0 |            0 |            0 |            0 |            0 |            0 |            0 |            0 |
mem.page_count                                  38 |           38 |           38 |           38 |           46 |           46 |           46 |           46 |           62 |           62 |           62 |           62 |           94 |           94 |           94 |           94 |          158 |          158 |          158 |          158 |          286 |          286 |          286 |          286 |          542 |          542 |          542 |          542 |         1060 |         1060 |         1060 |         1060 |         2084 |         2084 |         2084 |         2084 |         4138 |         4138 |         4138 |         4138 |         8246 |         8246 |         8246 |         8246 |
mem.page_mem                                  152k |         152k |         152k |         152k |         184k |         184k |         184k |         184k |         248k |         248k |         248k |         248k |         376k |         376k |         376k |         376k |         632k |         632k |         632k |         632k |        1144k |        1144k |        1144k |        1144k |        2168k |        2168k |        2168k |        2168k |        4240k |        4240k |        4240k |        4240k |        8336k |        8336k |        8336k |        8336k |       16552k |       16552k |       16552k |       16552k |       32984k |       32984k |       32984k |       32984k |
mem.ptab_misses                                 38 |           38 |           38 |           38 |           46 |           46 |           46 |           46 |           62 |           62 |           62 |           62 |           94 |           94 |           94 |           94 |          158 |          158 |          158 |          158 |          286 |          286 |          286 |          286 |          542 |          542 |          542 |          542 |         1078 |         1078 |         1078 |         1078 |        99070 |        99070 |        99070 |        99070 |       101382 |       101382 |       101382 |       101382 |       114638 |       114638 |       114638 |       114638 |
mem.ptab_accesses                          4463464 |      4463464 |      4463464 |      4463464 |      8539208 |      8539208 |      8539208 |      8539208 |     18604792 |     18604792 |     18604792 |     18604792 |     37393882 |     37393882 |     37393882 |     37393882 |     82539464 |     82539464 |     82539464 |     82539464 |    167530174 |    167530174 |    167530174 |    167530174 |    367803224 |    367803224 |    367803224 |    367803224 |    769903418 |    769903418 |    769903418 |    769903418 |   1672277342 |   1672277342 |   1672277342 |   1672277342 |   3392408340 |   3392408340 |   3392408340 |   3392408340 |   7316480274 |   7316480274 |   7316480274 |   7316480274 |
mem.ptab_miss_rate                          0.0000 |       0.0000 |       0.0000 |       0.0000 |       0.0000 |       0.0000 |       0.0000 |       0.0000 |       0.0000 |       0.0000 |       0.0000 |       0.0000 |       0.0000 |       0.0000 |       0.0000 |       0.0000 |       0.0000 |       0.0000 |       0.0000 |       0.0000 |       0.0000 |       0.0000 |       0.0000 |       0.0000 |       0.0000 |       0.0000 |       0.0000 |       0.0000 |       0.0000 |       0.0000 |       0.0000 |       0.0000 |       0.0001 |       0.0001 |       0.0001 |       0.0001 |       0.0000 |       0.0000 |       0.0000 |       0.0000 |       0.0000 |       0.0000 |       0.0000 |       0.0000 |
-------------------------------------------------------------------------------------------------
sim-bpred                                     4096 |         4096 |         4096 |         4096 |         4096 |         4096 |         4096 |         8192 |         8192 |         8192 |         8192 |         8192 |         8192 |         8192 |        16384 |        16384 |        16384 |        16384 |        16384 |        16384 |        16384 |        32768 |        32768 |        32768 |        32768 |        32768 |        32768 |        32768 |        65536 |        65536 |        65536 |        65536 |        65536 |        65536 |        65536 |       131072 |       131072 |       131072 |       131072 |       131072 |       131072 |       131072 |       262144 |       262144 |       262144 |       262144 |       262144 |       262144 |       262144 |       524288 |       524288 |       524288 |       524288 |       524288 |       524288 |       524288 |      1048576 |      1048576 |      1048576 |      1048576 |      1048576 |      1048576 |      1048576 |      2097152 |      2097152 |      2097152 |      2097152 |      2097152 |      2097152 |      2097152 |      4194304 |      4194304 |      4194304 |      4194304 |      4194304 |      4194304 |      4194304 |
-bpred bimod -bpred:bimod 512
-bpred bimod -bpred:bimod 1024
-bpred bimod -bpred:bimod 2048
-bpred 2lev -bpred:2lev 1 512 10 1
-bpred 2lev -bpred:2lev 1 1024 10 1
-bpred 2lev -bpred:2lev 1 2048 10 1
-bpred 2lev -bpred:2lev 1 4096 10 1
-------------------------------------------------------------------------------------------------
sim_num_insn                                858192 |       858192 |       858192 |       858192 |       858192 |       858192 |       858192 |      1747550 |      1747550 |      1747550 |      1747550 |      1747550 |      1747550 |      1747550 |      3957592 |      3957592 |      3957592 |      3957592 |      3957592 |      3957592 |      3957592 |      8062328 |      8062328 |      8062328 |      8062328 |      8062328 |      8062328 |      8062328 |     17976780 |     17976780 |     17976780 |     17976780 |     17976780 |     17976780 |     17976780 |     36558952 |     36558952 |     36558952 |     36558952 |     36558952 |     36558952 |     36558952 |     80549367 |     80549367 |     80549367 |     80549367 |     80549367 |     80549367 |     80549367 |    168437359 |    168437359 |    168437359 |    168437359 |    168437359 |    168437359 |    168437359 |    366572180 |    366572180 |    366572180 |    366572180 |    366572180 |    366572180 |    366572180 |    742933458 |    742933458 |    742933458 |    742933458 |    742933458 |    742933458 |    742933458 |   1604678764 |   1604678764 |   1604678764 |   1604678764 |   1604678764 |   1604678764 |   1604678764 |
sim_num_refs                                228632 |       228632 |       228632 |       228632 |       228632 |       228632 |       228632 |       471308 |       471308 |       471308 |       471308 |       471308 |       471308 |       471308 |      1051200 |      1051200 |      1051200 |      1051200 |      1051200 |      1051200 |      1051200 |      2170689 |      2170689 |      2170689 |      2170689 |      2170689 |      2170689 |      2170689 |      4783504 |      4783504 |      4783504 |      4783504 |      4783504 |      4783504 |      4783504 |      9852371 |      9852371 |      9852371 |      9852371 |      9852371 |      9852371 |      9852371 |     21483778 |     21483778 |     21483778 |     21483778 |     21483778 |     21483778 |     21483778 |     45709315 |     45709315 |     45709315 |     45709315 |     45709315 |     45709315 |     45709315 |     98529483 |     98529483 |     98529483 |     98529483 |     98529483 |     98529483 |     98529483 |    201678122 |    201678122 |    201678122 |    201678122 |    201678122 |    201678122 |    201678122 |    431834869 |    431834869 |    431834869 |    431834869 |    431834869 |    431834869 |    431834869 |
sim_elapsed_time                                 1 |            1 |            1 |            1 |            1 |            1 |            1 |            1 |            1 |            1 |            1 |            1 |            1 |            1 |            1 |            1 |            1 |            1 |            1 |            1 |            1 |            1 |            1 |            1 |            1 |            1 |            1 |            1 |            2 |            2 |            2 |            2 |            2 |            2 |            2 |            4 |            4 |            4 |            5 |            4 |            4 |            4 |            9 |            8 |            8 |            9 |            9 |            9 |            9 |           19 |           18 |           19 |           19 |           20 |           19 |           19 |           41 |           40 |           41 |           41 |           42 |           41 |           41 |           83 |           83 |           83 |           84 |           84 |           84 |           84 |          178 |          179 |          178 |          181 |          180 |          181 |          181 |
sim_inst_rate                          858192.0000 |  858192.0000 |  858192.0000 |  858192.0000 |  858192.0000 |  858192.0000 |  858192.0000 | 1747550.0000 | 1747550.0000 | 1747550.0000 | 1747550.0000 | 1747550.0000 | 1747550.0000 | 1747550.0000 | 3957592.0000 | 3957592.0000 | 3957592.0000 | 3957592.0000 | 3957592.0000 | 3957592.0000 | 3957592.0000 | 8062328.0000 | 8062328.0000 | 8062328.0000 | 8062328.0000 | 8062328.0000 | 8062328.0000 | 8062328.0000 | 8988390.0000 | 8988390.0000 | 8988390.0000 | 8988390.0000 | 8988390.0000 | 8988390.0000 | 8988390.0000 | 9139738.0000 | 9139738.0000 | 9139738.0000 | 7311790.4000 | 9139738.0000 | 9139738.0000 | 9139738.0000 | 8949929.6667 |10068670.8750 |10068670.8750 | 8949929.6667 | 8949929.6667 | 8949929.6667 | 8949929.6667 | 8865124.1579 | 9357631.0556 | 8865124.1579 | 8865124.1579 | 8421867.9500 | 8865124.1579 | 8865124.1579 | 8940784.8780 | 9164304.5000 | 8940784.8780 | 8940784.8780 | 8727909.0476 | 8940784.8780 | 8940784.8780 | 8951005.5181 | 8951005.5181 | 8951005.5181 | 8844445.9286 | 8844445.9286 | 8844445.9286 | 8844445.9286 | 9015049.2360 | 8964685.8324 | 9015049.2360 | 8865628.5304 | 8914882.0222 | 8865628.5304 | 8865628.5304 |
sim_num_branches                            112726 |       112726 |       112726 |       112726 |       112726 |       112726 |       112726 |       235238 |       235238 |       235238 |       235238 |       235238 |       235238 |       235238 |       514581 |       514581 |       514581 |       514581 |       514581 |       514581 |       514581 |      1071276 |      1071276 |      1071276 |      1071276 |      1071276 |      1071276 |      1071276 |      2318691 |      2318691 |      2318691 |      2318691 |      2318691 |      2318691 |      2318691 |      4810527 |      4810527 |      4810527 |      4810527 |      4810527 |      4810527 |      4810527 |     10324817 |     10324817 |     10324817 |     10324817 |     10324817 |     10324817 |     10324817 |     21939326 |     21939326 |     21939326 |     21939326 |     21939326 |     21939326 |     21939326 |     46688986 |     46688986 |     46688986 |     46688986 |     46688986 |     46688986 |     46688986 |     96157661 |     96157661 |     96157661 |     96157661 |     96157661 |     96157661 |     96157661 |    203556483 |    203556483 |    203556483 |    203556483 |    203556483 |    203556483 |    203556483 |
sim_IPB                                     7.6131 |       7.6131 |       7.6131 |       7.6131 |       7.6131 |       7.6131 |       7.6131 |       7.4289 |       7.4289 |       7.4289 |       7.4289 |       7.4289 |       7.4289 |       7.4289 |       7.6909 |       7.6909 |       7.6909 |       7.6909 |       7.6909 |       7.6909 |       7.6909 |       7.5259 |       7.5259 |       7.5259 |       7.5259 |       7.5259 |       7.5259 |       7.5259 |       7.7530 |       7.7530 |       7.7530 |       7.7530 |       7.7530 |       7.7530 |       7.7530 |       7.5998 |       7.5998 |       7.5998 |       7.5998 |       7.5998 |       7.5998 |       7.5998 |       7.8015 |       7.8015 |       7.8015 |       7.8015 |       7.8015 |       7.8015 |       7.8015 |       7.6774 |       7.6774 |       7.6774 |       7.6774 |       7.6774 |       7.6774 |       7.6774 |       7.8514 |       7.8514 |       7.8514 |       7.8514 |       7.8514 |       7.8514 |       7.8514 |       7.7262 |       7.7262 |       7.7262 |       7.7262 |       7.7262 |       7.7262 |       7.7262 |       7.8832 |       7.8832 |       7.8832 |       7.8832 |       7.8832 |       7.8832 |       7.8832 |
bpred_bimod.lookups                         112726 |       112726 |       112726 |xxxxxxxxxxxxx |xxxxxxxxxxxxx |xxxxxxxxxxxxx |xxxxxxxxxxxxx |       235238 |       235238 |       235238 |xxxxxxxxxxxxx |xxxxxxxxxxxxx |xxxxxxxxxxxxx |xxxxxxxxxxxxx |       514581 |       514581 |       514581 |xxxxxxxxxxxxx |xxxxxxxxxxxxx |xxxxxxxxxxxxx |xxxxxxxxxxxxx |      1071276 |      1071276 |      1071276 |xxxxxxxxxxxxx |xxxxxxxxxxxxx |xxxxxxxxxxxxx |xxxxxxxxxxxxx |      2318691 |      2318691 |      2318691 |xxxxxxxxxxxxx |xxxxxxxxxxxxx |xxxxxxxxxxxxx |xxxxxxxxxxxxx |      4810527 |      4810527 |      4810527 |xxxxxxxxxxxxx |xxxxxxxxxxxxx |xxxxxxxxxxxxx |xxxxxxxxxxxxx |     10324817 |     10324817 |     10324817 |xxxxxxxxxxxxx |xxxxxxxxxxxxx |xxxxxxxxxxxxx |xxxxxxxxxxxxx |     21939326 |     21939326 |     21939326 |xxxxxxxxxxxxx |xxxxxxxxxxxxx |xxxxxxxxxxxxx |xxxxxxxxxxxxx |     46688986 |     46688986 |     46688986 |xxxxxxxxxxxxx |xxxxxxxxxxxxx |xxxxxxxxxxxxx |xxxxxxxxxxxxx |     96157661 |     96157661 |     96157661 |xxxxxxxxxxxxx |xxxxxxxxxxxxx |xxxxxxxxxxxxx |xxxxxxxxxxxxx |    203556483 |    203556483 |    203556483 |
bpred_bimod.updates                         112726 |       112726 |       112726 |xxxxxxxxxxxxx |xxxxxxxxxxxxx |xxxxxxxxxxxxx |xxxxxxxxxxxxx |       235238 |       235238 |       235238 |xxxxxxxxxxxxx |xxxxxxxxxxxxx |xxxxxxxxxxxxx |xxxxxxxxxxxxx |       514581 |       514581 |       514581 |xxxxxxxxxxxxx |xxxxxxxxxxxxx |xxxxxxxxxxxxx |xxxxxxxxxxxxx |      1071276 |      1071276 |      1071276 |xxxxxxxxxxxxx |xxxxxxxxxxxxx |xxxxxxxxxxxxx |xxxxxxxxxxxxx |      2318691 |      2318691 |      2318691 |xxxxxxxxxxxxx |xxxxxxxxxxxxx |xxxxxxxxxxxxx |xxxxxxxxxxxxx |      4810527 |      4810527 |      4810527 |xxxxxxxxxxxxx |xxxxxxxxxxxxx |xxxxxxxxxxxxx |xxxxxxxxxxxxx |     10324817 |     10324817 |     10324817 |xxxxxxxxxxxxx |xxxxxxxxxxxxx |xxxxxxxxxxxxx |xxxxxxxxxxxxx |     21939326 |     21939326 |     21939326 |xxxxxxxxxxxxx |xxxxxxxxxxxxx |xxxxxxxxxxxxx |xxxxxxxxxxxxx |     46688986 |     46688986 |     46688986 |xxxxxxxxxxxxx |xxxxxxxxxxxxx |xxxxxxxxxxxxx |xxxxxxxxxxxxx |     96157661 |     96157661 |     96157661 |xxxxxxxxxxxxx |xxxxxxxxxxxxx |xxxxxxxxxxxxx |xxxxxxxxxxxxx |    203556483 |    203556483 |    203556483 |
bpred_bimod.addr_hits                        87159 |        87166 |        87168 |xxxxxxxxxxxxx |xxxxxxxxxxxxx |xxxxxxxxxxxxx |xxxxxxxxxxxxx |       183612 |       183618 |       183617 |xxxxxxxxxxxxx |xxxxxxxxxxxxx |xxxxxxxxxxxxx |xxxxxxxxxxxxx |       396550 |       396572 |       396575 |xxxxxxxxxxxxx |xxxxxxxxxxxxx |xxxxxxxxxxxxx |xxxxxxxxxxxxx |       832928 |       832945 |       832947 |xxxxxxxxxxxxx |xxxxxxxxxxxxx |xxxxxxxxxxxxx |xxxxxxxxxxxxx |      1781950 |      1782020 |      1782023 |xxxxxxxxxxxxx |xxxxxxxxxxxxx |xxxxxxxxxxxxx |xxxxxxxxxxxxx |      3725015 |      3725063 |      3725064 |xxxxxxxxxxxxx |xxxxxxxxxxxxx |xxxxxxxxxxxxx |xxxxxxxxxxxxx |      7913267 |      7913525 |      7913528 |xxxxxxxxxxxxx |xxxxxxxxxxxxx |xxxxxxxxxxxxx |xxxxxxxxxxxxx |     17072665 |     17072865 |     17072867 |xxxxxxxxxxxxx |xxxxxxxxxxxxx |xxxxxxxxxxxxx |xxxxxxxxxxxxx |     35994556 |     35995595 |     35995595 |xxxxxxxxxxxxx |xxxxxxxxxxxxx |xxxxxxxxxxxxx |xxxxxxxxxxxxx |     74590122 |     74590791 |     74590796 |xxxxxxxxxxxxx |xxxxxxxxxxxxx |xxxxxxxxxxxxx |xxxxxxxxxxxxx |    156577402 |    156581402 |    156581402 |
bpred_bimod.dir_hits                         87307 |        87316 |        87318 |xxxxxxxxxxxxx |xxxxxxxxxxxxx |xxxxxxxxxxxxx |xxxxxxxxxxxxx |       183764 |       183770 |       183770 |xxxxxxxxxxxxx |xxxxxxxxxxxxx |xxxxxxxxxxxxx |xxxxxxxxxxxxx |       396702 |       396722 |       396725 |xxxxxxxxxxxxx |xxxxxxxxxxxxx |xxxxxxxxxxxxx |xxxxxxxxxxxxx |       833078 |       833094 |       833098 |xxxxxxxxxxxxx |xxxxxxxxxxxxx |xxxxxxxxxxxxx |xxxxxxxxxxxxx |      1782097 |      1782167 |      1782173 |xxxxxxxxxxxxx |xxxxxxxxxxxxx |xxxxxxxxxxxxx |xxxxxxxxxxxxx |      3725168 |      3725215 |      3725217 |xxxxxxxxxxxxx |xxxxxxxxxxxxx |xxxxxxxxxxxxx |xxxxxxxxxxxxx |      7913413 |      7913670 |      7913675 |xxxxxxxxxxxxx |xxxxxxxxxxxxx |xxxxxxxxxxxxx |xxxxxxxxxxxxx |     17072840 |     17073038 |     17073040 |xxxxxxxxxxxxx |xxxxxxxxxxxxx |xxxxxxxxxxxxx |xxxxxxxxxxxxx |     35994730 |     35995768 |     35995768 |xxxxxxxxxxxxx |xxxxxxxxxxxxx |xxxxxxxxxxxxx |xxxxxxxxxxxxx |     74590298 |     74590965 |     74590970 |xxxxxxxxxxxxx |xxxxxxxxxxxxx |xxxxxxxxxxxxx |xxxxxxxxxxxxx |    156577576 |    156581575 |    156581575 |
bpred_bimod.misses                           25419 |        25410 |        25408 |xxxxxxxxxxxxx |xxxxxxxxxxxxx |xxxxxxxxxxxxx |xxxxxxxxxxxxx |        51474 |        51468 |        51468 |xxxxxxxxxxxxx |xxxxxxxxxxxxx |xxxxxxxxxxxxx |xxxxxxxxxxxxx |       117879 |       117859 |       117856 |xxxxxxxxxxxxx |xxxxxxxxxxxxx |xxxxxxxxxxxxx |xxxxxxxxxxxxx |       238198 |       238182 |       238178 |xxxxxxxxxxxxx |xxxxxxxxxxxxx |xxxxxxxxxxxxx |xxxxxxxxxxxxx |       536594 |       536524 |       536518 |xxxxxxxxxxxxx |xxxxxxxxxxxxx |xxxxxxxxxxxxx |xxxxxxxxxxxxx |      1085359 |      1085312 |      1085310 |xxxxxxxxxxxxx |xxxxxxxxxxxxx |xxxxxxxxxxxxx |xxxxxxxxxxxxx |      2411404 |      2411147 |      2411142 |xxxxxxxxxxxxx |xxxxxxxxxxxxx |xxxxxxxxxxxxx |xxxxxxxxxxxxx |      4866486 |      4866288 |      4866286 |xxxxxxxxxxxxx |xxxxxxxxxxxxx |xxxxxxxxxxxxx |xxxxxxxxxxxxx |     10694256 |     10693218 |     10693218 |xxxxxxxxxxxxx |xxxxxxxxxxxxx |xxxxxxxxxxxxx |xxxxxxxxxxxxx |     21567363 |     21566696 |     21566691 |xxxxxxxxxxxxx |xxxxxxxxxxxxx |xxxxxxxxxxxxx |xxxxxxxxxxxxx |     46978907 |     46974908 |     46974908 |
bpred_bimod.jr_hits                             79 |           79 |           79 |xxxxxxxxxxxxx |xxxxxxxxxxxxx |xxxxxxxxxxxxx |xxxxxxxxxxxxx |           87 |           87 |           87 |xxxxxxxxxxxxx |xxxxxxxxxxxxx |xxxxxxxxxxxxx |xxxxxxxxxxxxx |          103 |          103 |          103 |xxxxxxxxxxxxx |xxxxxxxxxxxxx |xxxxxxxxxxxxx |xxxxxxxxxxxxx |          135 |          135 |          135 |xxxxxxxxxxxxx |xxxxxxxxxxxxx |xxxxxxxxxxxxx |xxxxxxxxxxxxx |          199 |          199 |          199 |xxxxxxxxxxxxx |xxxxxxxxxxxxx |xxxxxxxxxxxxx |xxxxxxxxxxxxx |          327 |          327 |          327 |xxxxxxxxxxxxx |xxxxxxxxxxxxx |xxxxxxxxxxxxx |xxxxxxxxxxxxx |          583 |          583 |          583 |xxxxxxxxxxxxx |xxxxxxxxxxxxx |xxxxxxxxxxxxx |xxxxxxxxxxxxx |         1100 |         1100 |         1100 |xxxxxxxxxxxxx |xxxxxxxxxxxxx |xxxxxxxxxxxxx |xxxxxxxxxxxxx |         2126 |         2126 |         2126 |xxxxxxxxxxxxx |xxxxxxxxxxxxx |xxxxxxxxxxxxx |xxxxxxxxxxxxx |         4178 |         4178 |         4178 |xxxxxxxxxxxxx |xxxxxxxxxxxxx |xxxxxxxxxxxxx |xxxxxxxxxxxxx |         8282 |         8282 |         8282 |
bpred_bimod.jr_seen                             80 |           80 |           80 |xxxxxxxxxxxxx |xxxxxxxxxxxxx |xxxxxxxxxxxxx |xxxxxxxxxxxxx |           88 |           88 |           88 |xxxxxxxxxxxxx |xxxxxxxxxxxxx |xxxxxxxxxxxxx |xxxxxxxxxxxxx |          104 |          104 |          104 |xxxxxxxxxxxxx |xxxxxxxxxxxxx |xxxxxxxxxxxxx |xxxxxxxxxxxxx |          136 |          136 |          136 |xxxxxxxxxxxxx |xxxxxxxxxxxxx |xxxxxxxxxxxxx |xxxxxxxxxxxxx |          200 |          200 |          200 |xxxxxxxxxxxxx |xxxxxxxxxxxxx |xxxxxxxxxxxxx |xxxxxxxxxxxxx |          328 |          328 |          328 |xxxxxxxxxxxxx |xxxxxxxxxxxxx |xxxxxxxxxxxxx |xxxxxxxxxxxxx |          584 |          584 |          584 |xxxxxxxxxxxxx |xxxxxxxxxxxxx |xxxxxxxxxxxxx |xxxxxxxxxxxxx |         1101 |         1101 |         1101 |xxxxxxxxxxxxx |xxxxxxxxxxxxx |xxxxxxxxxxxxx |xxxxxxxxxxxxx |         2127 |         2127 |         2127 |xxxxxxxxxxxxx |xxxxxxxxxxxxx |xxxxxxxxxxxxx |xxxxxxxxxxxxx |         4179 |         4179 |         4179 |xxxxxxxxxxxxx |xxxxxxxxxxxxx |xxxxxxxxxxxxx |xxxxxxxxxxxxx |         8283 |         8283 |         8283 |
bpred_bimod.jr_non_ras_hits.PP                   0 |            0 |            0 |xxxxxxxxxxxxx |xxxxxxxxxxxxx |xxxxxxxxxxxxx |xxxxxxxxxxxxx |            0 |            0 |            0 |xxxxxxxxxxxxx |xxxxxxxxxxxxx |xxxxxxxxxxxxx |xxxxxxxxxxxxx |            0 |            0 |            0 |xxxxxxxxxxxxx |xxxxxxxxxxxxx |xxxxxxxxxxxxx |xxxxxxxxxxxxx |            0 |            0 |            0 |xxxxxxxxxxxxx |xxxxxxxxxxxxx |xxxxxxxxxxxxx |xxxxxxxxxxxxx |            0 |            0 |            0 |xxxxxxxxxxxxx |xxxxxxxxxxxxx |xxxxxxxxxxxxx |xxxxxxxxxxxxx |            0 |            0 |            0 |xxxxxxxxxxxxx |xxxxxxxxxxxxx |xxxxxxxxxxxxx |xxxxxxxxxxxxx |            0 |            0 |            0 |xxxxxxxxxxxxx |xxxxxxxxxxxxx |xxxxxxxxxxxxx |xxxxxxxxxxxxx |            0 |            0 |            0 |xxxxxxxxxxxxx |xxxxxxxxxxxxx |xxxxxxxxxxxxx |xxxxxxxxxxxxx |            0 |            0 |            0 |xxxxxxxxxxxxx |xxxxxxxxxxxxx |xxxxxxxxxxxxx |xxxxxxxxxxxxx |            0 |            0 |            0 |xxxxxxxxxxxxx |xxxxxxxxxxxxx |xxxxxxxxxxxxx |xxxxxxxxxxxxx |            0 |            0 |            0 |
bpred_bimod.jr_non_ras_seen.PP                   0 |            0 |            0 |xxxxxxxxxxxxx |xxxxxxxxxxxxx |xxxxxxxxxxxxx |xxxxxxxxxxxxx |            0 |            0 |            0 |xxxxxxxxxxxxx |xxxxxxxxxxxxx |xxxxxxxxxxxxx |xxxxxxxxxxxxx |            0 |            0 |            0 |xxxxxxxxxxxxx |xxxxxxxxxxxxx |xxxxxxxxxxxxx |xxxxxxxxxxxxx |            0 |            0 |            0 |xxxxxxxxxxxxx |xxxxxxxxxxxxx |xxxxxxxxxxxxx |xxxxxxxxxxxxx |            0 |            0 |            0 |xxxxxxxxxxxxx |xxxxxxxxxxxxx |xxxxxxxxxxxxx |xxxxxxxxxxxxx |            0 |            0 |            0 |xxxxxxxxxxxxx |xxxxxxxxxxxxx |xxxxxxxxxxxxx |xxxxxxxxxxxxx |            0 |            0 |            0 |xxxxxxxxxxxxx |xxxxxxxxxxxxx |xxxxxxxxxxxxx |xxxxxxxxxxxxx |            1 |            1 |            1 |xxxxxxxxxxxxx |xxxxxxxxxxxxx |xxxxxxxxxxxxx |xxxxxxxxxxxxx |            1 |            1 |            1 |xxxxxxxxxxxxx |xxxxxxxxxxxxx |xxxxxxxxxxxxx |xxxxxxxxxxxxx |            1 |            1 |            1 |xxxxxxxxxxxxx |xxxxxxxxxxxxx |xxxxxxxxxxxxx |xxxxxxxxxxxxx |            1 |            1 |            1 |
bpred_bimod.bpred_addr_rate                 0.7732 |       0.7733 |       0.7733 |xxxxxxxxxxxxx |xxxxxxxxxxxxx |xxxxxxxxxxxxx |xxxxxxxxxxxxx |       0.7805 |       0.7806 |       0.7806 |xxxxxxxxxxxxx |xxxxxxxxxxxxx |xxxxxxxxxxxxx |xxxxxxxxxxxxx |       0.7706 |       0.7707 |       0.7707 |xxxxxxxxxxxxx |xxxxxxxxxxxxx |xxxxxxxxxxxxx |xxxxxxxxxxxxx |       0.7775 |       0.7775 |       0.7775 |xxxxxxxxxxxxx |xxxxxxxxxxxxx |xxxxxxxxxxxxx |xxxxxxxxxxxxx |       0.7685 |       0.7685 |       0.7685 |xxxxxxxxxxxxx |xxxxxxxxxxxxx |xxxxxxxxxxxxx |xxxxxxxxxxxxx |       0.7743 |       0.7744 |       0.7744 |xxxxxxxxxxxxx |xxxxxxxxxxxxx |xxxxxxxxxxxxx |xxxxxxxxxxxxx |       0.7664 |       0.7665 |       0.7665 |xxxxxxxxxxxxx |xxxxxxxxxxxxx |xxxxxxxxxxxxx |xxxxxxxxxxxxx |       0.7782 |       0.7782 |       0.7782 |xxxxxxxxxxxxx |xxxxxxxxxxxxx |xxxxxxxxxxxxx |xxxxxxxxxxxxx |       0.7709 |       0.7710 |       0.7710 |xxxxxxxxxxxxx |xxxxxxxxxxxxx |xxxxxxxxxxxxx |xxxxxxxxxxxxx |       0.7757 |       0.7757 |       0.7757 |xxxxxxxxxxxxx |xxxxxxxxxxxxx |xxxxxxxxxxxxx |xxxxxxxxxxxxx |       0.7692 |       0.7692 |       0.7692 |
bpred_bimod.bpred_dir_rate                  0.7745 |       0.7746 |       0.7746 |xxxxxxxxxxxxx |xxxxxxxxxxxxx |xxxxxxxxxxxxx |xxxxxxxxxxxxx |       0.7812 |       0.7812 |       0.7812 |xxxxxxxxxxxxx |xxxxxxxxxxxxx |xxxxxxxxxxxxx |xxxxxxxxxxxxx |       0.7709 |       0.7710 |       0.7710 |xxxxxxxxxxxxx |xxxxxxxxxxxxx |xxxxxxxxxxxxx |xxxxxxxxxxxxx |       0.7777 |       0.7777 |       0.7777 |xxxxxxxxxxxxx |xxxxxxxxxxxxx |xxxxxxxxxxxxx |xxxxxxxxxxxxx |       0.7686 |       0.7686 |       0.7686 |xxxxxxxxxxxxx |xxxxxxxxxxxxx |xxxxxxxxxxxxx |xxxxxxxxxxxxx |       0.7744 |       0.7744 |       0.7744 |xxxxxxxxxxxxx |xxxxxxxxxxxxx |xxxxxxxxxxxxx |xxxxxxxxxxxxx |       0.7664 |       0.7665 |       0.7665 |xxxxxxxxxxxxx |xxxxxxxxxxxxx |xxxxxxxxxxxxx |xxxxxxxxxxxxx |       0.7782 |       0.7782 |       0.7782 |xxxxxxxxxxxxx |xxxxxxxxxxxxx |xxxxxxxxxxxxx |xxxxxxxxxxxxx |       0.7709 |       0.7710 |       0.7710 |xxxxxxxxxxxxx |xxxxxxxxxxxxx |xxxxxxxxxxxxx |xxxxxxxxxxxxx |       0.7757 |       0.7757 |       0.7757 |xxxxxxxxxxxxx |xxxxxxxxxxxxx |xxxxxxxxxxxxx |xxxxxxxxxxxxx |       0.7692 |       0.7692 |       0.7692 |
bpred_bimod.bpred_jr_rate                   0.9875 |       0.9875 |       0.9875 |xxxxxxxxxxxxx |xxxxxxxxxxxxx |xxxxxxxxxxxxx |xxxxxxxxxxxxx |       0.9886 |       0.9886 |       0.9886 |xxxxxxxxxxxxx |xxxxxxxxxxxxx |xxxxxxxxxxxxx |xxxxxxxxxxxxx |       0.9904 |       0.9904 |       0.9904 |xxxxxxxxxxxxx |xxxxxxxxxxxxx |xxxxxxxxxxxxx |xxxxxxxxxxxxx |       0.9926 |       0.9926 |       0.9926 |xxxxxxxxxxxxx |xxxxxxxxxxxxx |xxxxxxxxxxxxx |xxxxxxxxxxxxx |       0.9950 |       0.9950 |       0.9950 |xxxxxxxxxxxxx |xxxxxxxxxxxxx |xxxxxxxxxxxxx |xxxxxxxxxxxxx |       0.9970 |       0.9970 |       0.9970 |xxxxxxxxxxxxx |xxxxxxxxxxxxx |xxxxxxxxxxxxx |xxxxxxxxxxxxx |       0.9983 |       0.9983 |       0.9983 |xxxxxxxxxxxxx |xxxxxxxxxxxxx |xxxxxxxxxxxxx |xxxxxxxxxxxxx |       0.9991 |       0.9991 |       0.9991 |xxxxxxxxxxxxx |xxxxxxxxxxxxx |xxxxxxxxxxxxx |xxxxxxxxxxxxx |       0.9995 |       0.9995 |       0.9995 |xxxxxxxxxxxxx |xxxxxxxxxxxxx |xxxxxxxxxxxxx |xxxxxxxxxxxxx |       0.9998 |       0.9998 |       0.9998 |xxxxxxxxxxxxx |xxxxxxxxxxxxx |xxxxxxxxxxxxx |xxxxxxxxxxxxx |       0.9999 |       0.9999 |       0.9999 |
bpred_bimod.bpred_jr_non_ras_rate.PP       <error: |      <error: |      <error: |xxxxxxxxxxxxx |xxxxxxxxxxxxx |xxxxxxxxxxxxx |xxxxxxxxxxxxx |      <error: |      <error: |      <error: |xxxxxxxxxxxxx |xxxxxxxxxxxxx |xxxxxxxxxxxxx |xxxxxxxxxxxxx |      <error: |      <error: |      <error: |xxxxxxxxxxxxx |xxxxxxxxxxxxx |xxxxxxxxxxxxx |xxxxxxxxxxxxx |      <error: |      <error: |      <error: |xxxxxxxxxxxxx |xxxxxxxxxxxxx |xxxxxxxxxxxxx |xxxxxxxxxxxxx |      <error: |      <error: |      <error: |xxxxxxxxxxxxx |xxxxxxxxxxxxx |xxxxxxxxxxxxx |xxxxxxxxxxxxx |      <error: |      <error: |      <error: |xxxxxxxxxxxxx |xxxxxxxxxxxxx |xxxxxxxxxxxxx |xxxxxxxxxxxxx |      <error: |      <error: |      <error: |xxxxxxxxxxxxx |xxxxxxxxxxxxx |xxxxxxxxxxxxx |xxxxxxxxxxxxx |       0.0000 |       0.0000 |       0.0000 |xxxxxxxxxxxxx |xxxxxxxxxxxxx |xxxxxxxxxxxxx |xxxxxxxxxxxxx |       0.0000 |       0.0000 |       0.0000 |xxxxxxxxxxxxx |xxxxxxxxxxxxx |xxxxxxxxxxxxx |xxxxxxxxxxxxx |       0.0000 |       0.0000 |       0.0000 |xxxxxxxxxxxxx |xxxxxxxxxxxxx |xxxxxxxxxxxxx |xxxxxxxxxxxxx |       0.0000 |       0.0000 |       0.0000 |
bpred_bimod.retstack_pushes                     82 |           82 |           82 |xxxxxxxxxxxxx |xxxxxxxxxxxxx |xxxxxxxxxxxxx |xxxxxxxxxxxxx |           90 |           90 |           90 |xxxxxxxxxxxxx |xxxxxxxxxxxxx |xxxxxxxxxxxxx |xxxxxxxxxxxxx |          106 |          106 |          106 |xxxxxxxxxxxxx |xxxxxxxxxxxxx |xxxxxxxxxxxxx |xxxxxxxxxxxxx |          138 |          138 |          138 |xxxxxxxxxxxxx |xxxxxxxxxxxxx |xxxxxxxxxxxxx |xxxxxxxxxxxxx |          202 |          202 |          202 |xxxxxxxxxxxxx |xxxxxxxxxxxxx |xxxxxxxxxxxxx |xxxxxxxxxxxxx |          330 |          330 |          330 |xxxxxxxxxxxxx |xxxxxxxxxxxxx |xxxxxxxxxxxxx |xxxxxxxxxxxxx |          586 |          586 |          586 |xxxxxxxxxxxxx |xxxxxxxxxxxxx |xxxxxxxxxxxxx |xxxxxxxxxxxxx |         1102 |         1102 |         1102 |xxxxxxxxxxxxx |xxxxxxxxxxxxx |xxxxxxxxxxxxx |xxxxxxxxxxxxx |         2128 |         2128 |         2128 |xxxxxxxxxxxxx |xxxxxxxxxxxxx |xxxxxxxxxxxxx |xxxxxxxxxxxxx |         4180 |         4180 |         4180 |xxxxxxxxxxxxx |xxxxxxxxxxxxx |xxxxxxxxxxxxx |xxxxxxxxxxxxx |         8284 |         8284 |         8284 |
bpred_bimod.retstack_pops                       80 |           80 |           80 |xxxxxxxxxxxxx |xxxxxxxxxxxxx |xxxxxxxxxxxxx |xxxxxxxxxxxxx |           88 |           88 |           88 |xxxxxxxxxxxxx |xxxxxxxxxxxxx |xxxxxxxxxxxxx |xxxxxxxxxxxxx |          104 |          104 |          104 |xxxxxxxxxxxxx |xxxxxxxxxxxxx |xxxxxxxxxxxxx |xxxxxxxxxxxxx |          136 |          136 |          136 |xxxxxxxxxxxxx |xxxxxxxxxxxxx |xxxxxxxxxxxxx |xxxxxxxxxxxxx |          200 |          200 |          200 |xxxxxxxxxxxxx |xxxxxxxxxxxxx |xxxxxxxxxxxxx |xxxxxxxxxxxxx |          328 |          328 |          328 |xxxxxxxxxxxxx |xxxxxxxxxxxxx |xxxxxxxxxxxxx |xxxxxxxxxxxxx |          584 |          584 |          584 |xxxxxxxxxxxxx |xxxxxxxxxxxxx |xxxxxxxxxxxxx |xxxxxxxxxxxxx |         1100 |         1100 |         1100 |xxxxxxxxxxxxx |xxxxxxxxxxxxx |xxxxxxxxxxxxx |xxxxxxxxxxxxx |         2126 |         2126 |         2126 |xxxxxxxxxxxxx |xxxxxxxxxxxxx |xxxxxxxxxxxxx |xxxxxxxxxxxxx |         4178 |         4178 |         4178 |xxxxxxxxxxxxx |xxxxxxxxxxxxx |xxxxxxxxxxxxx |xxxxxxxxxxxxx |         8282 |         8282 |         8282 |
bpred_bimod.used_ras.PP                         80 |           80 |           80 |xxxxxxxxxxxxx |xxxxxxxxxxxxx |xxxxxxxxxxxxx |xxxxxxxxxxxxx |           88 |           88 |           88 |xxxxxxxxxxxxx |xxxxxxxxxxxxx |xxxxxxxxxxxxx |xxxxxxxxxxxxx |          104 |          104 |          104 |xxxxxxxxxxxxx |xxxxxxxxxxxxx |xxxxxxxxxxxxx |xxxxxxxxxxxxx |          136 |          136 |          136 |xxxxxxxxxxxxx |xxxxxxxxxxxxx |xxxxxxxxxxxxx |xxxxxxxxxxxxx |          200 |          200 |          200 |xxxxxxxxxxxxx |xxxxxxxxxxxxx |xxxxxxxxxxxxx |xxxxxxxxxxxxx |          328 |          328 |          328 |xxxxxxxxxxxxx |xxxxxxxxxxxxx |xxxxxxxxxxxxx |xxxxxxxxxxxxx |          584 |          584 |          584 |xxxxxxxxxxxxx |xxxxxxxxxxxxx |xxxxxxxxxxxxx |xxxxxxxxxxxxx |         1100 |         1100 |         1100 |xxxxxxxxxxxxx |xxxxxxxxxxxxx |xxxxxxxxxxxxx |xxxxxxxxxxxxx |         2126 |         2126 |         2126 |xxxxxxxxxxxxx |xxxxxxxxxxxxx |xxxxxxxxxxxxx |xxxxxxxxxxxxx |         4178 |         4178 |         4178 |xxxxxxxxxxxxx |xxxxxxxxxxxxx |xxxxxxxxxxxxx |xxxxxxxxxxxxx |         8282 |         8282 |         8282 |
bpred_bimod.ras_hits.PP                         79 |           79 |           79 |xxxxxxxxxxxxx |xxxxxxxxxxxxx |xxxxxxxxxxxxx |xxxxxxxxxxxxx |           87 |           87 |           87 |xxxxxxxxxxxxx |xxxxxxxxxxxxx |xxxxxxxxxxxxx |xxxxxxxxxxxxx |          103 |          103 |          103 |xxxxxxxxxxxxx |xxxxxxxxxxxxx |xxxxxxxxxxxxx |xxxxxxxxxxxxx |          135 |          135 |          135 |xxxxxxxxxxxxx |xxxxxxxxxxxxx |xxxxxxxxxxxxx |xxxxxxxxxxxxx |          199 |          199 |          199 |xxxxxxxxxxxxx |xxxxxxxxxxxxx |xxxxxxxxxxxxx |xxxxxxxxxxxxx |          327 |          327 |          327 |xxxxxxxxxxxxx |xxxxxxxxxxxxx |xxxxxxxxxxxxx |xxxxxxxxxxxxx |          583 |          583 |          583 |xxxxxxxxxxxxx |xxxxxxxxxxxxx |xxxxxxxxxxxxx |xxxxxxxxxxxxx |         1100 |         1100 |         1100 |xxxxxxxxxxxxx |xxxxxxxxxxxxx |xxxxxxxxxxxxx |xxxxxxxxxxxxx |         2126 |         2126 |         2126 |xxxxxxxxxxxxx |xxxxxxxxxxxxx |xxxxxxxxxxxxx |xxxxxxxxxxxxx |         4178 |         4178 |         4178 |xxxxxxxxxxxxx |xxxxxxxxxxxxx |xxxxxxxxxxxxx |xxxxxxxxxxxxx |         8282 |         8282 |         8282 |
bpred_bimod.ras_rate.PP                     0.9875 |       0.9875 |       0.9875 |xxxxxxxxxxxxx |xxxxxxxxxxxxx |xxxxxxxxxxxxx |xxxxxxxxxxxxx |       0.9886 |       0.9886 |       0.9886 |xxxxxxxxxxxxx |xxxxxxxxxxxxx |xxxxxxxxxxxxx |xxxxxxxxxxxxx |       0.9904 |       0.9904 |       0.9904 |xxxxxxxxxxxxx |xxxxxxxxxxxxx |xxxxxxxxxxxxx |xxxxxxxxxxxxx |       0.9926 |       0.9926 |       0.9926 |xxxxxxxxxxxxx |xxxxxxxxxxxxx |xxxxxxxxxxxxx |xxxxxxxxxxxxx |       0.9950 |       0.9950 |       0.9950 |xxxxxxxxxxxxx |xxxxxxxxxxxxx |xxxxxxxxxxxxx |xxxxxxxxxxxxx |       0.9970 |       0.9970 |       0.9970 |xxxxxxxxxxxxx |xxxxxxxxxxxxx |xxxxxxxxxxxxx |xxxxxxxxxxxxx |       0.9983 |       0.9983 |       0.9983 |xxxxxxxxxxxxx |xxxxxxxxxxxxx |xxxxxxxxxxxxx |xxxxxxxxxxxxx |       1.0000 |       1.0000 |       1.0000 |xxxxxxxxxxxxx |xxxxxxxxxxxxx |xxxxxxxxxxxxx |xxxxxxxxxxxxx |       1.0000 |       1.0000 |       1.0000 |xxxxxxxxxxxxx |xxxxxxxxxxxxx |xxxxxxxxxxxxx |xxxxxxxxxxxxx |       1.0000 |       1.0000 |       1.0000 |xxxxxxxxxxxxx |xxxxxxxxxxxxx |xxxxxxxxxxxxx |xxxxxxxxxxxxx |       1.0000 |       1.0000 |       1.0000 |
bpred_2lev.lookups                   xxxxxxxxxxxxx |xxxxxxxxxxxxx |xxxxxxxxxxxxx |       112726 |       112726 |       112726 |       112726 |xxxxxxxxxxxxx |xxxxxxxxxxxxx |xxxxxxxxxxxxx |       235238 |       235238 |       235238 |       235238 |xxxxxxxxxxxxx |xxxxxxxxxxxxx |xxxxxxxxxxxxx |       514581 |       514581 |       514581 |       514581 |xxxxxxxxxxxxx |xxxxxxxxxxxxx |xxxxxxxxxxxxx |      1071276 |      1071276 |      1071276 |      1071276 |xxxxxxxxxxxxx |xxxxxxxxxxxxx |xxxxxxxxxxxxx |      2318691 |      2318691 |      2318691 |      2318691 |xxxxxxxxxxxxx |xxxxxxxxxxxxx |xxxxxxxxxxxxx |      4810527 |      4810527 |      4810527 |      4810527 |xxxxxxxxxxxxx |xxxxxxxxxxxxx |xxxxxxxxxxxxx |     10324817 |     10324817 |     10324817 |     10324817 |xxxxxxxxxxxxx |xxxxxxxxxxxxx |xxxxxxxxxxxxx |     21939326 |     21939326 |     21939326 |     21939326 |xxxxxxxxxxxxx |xxxxxxxxxxxxx |xxxxxxxxxxxxx |     46688986 |     46688986 |     46688986 |     46688986 |xxxxxxxxxxxxx |xxxxxxxxxxxxx |xxxxxxxxxxxxx |     96157661 |     96157661 |     96157661 |     96157661 |xxxxxxxxxxxxx |xxxxxxxxxxxxx |xxxxxxxxxxxxx |    203556483 |    203556483 |    203556483 |    203556483 |
[...]
bpred_2lev.retstack_pushes           xxxxxxxxxxxxx |xxxxxxxxxxxxx |xxxxxxxxxxxxx |           82 |           82 |           82 |           82 |xxxxxxxxxxxxx |xxxxxxxxxxxxx |xxxxxxxxxxxxx |           90 |           90 |           90 |           90 |xxxxxxxxxxxxx |xxxxxxxxxxxxx |xxxxxxxxxxxxx |          106 |          106 |          106 |          106 |xxxxxxxxxxxxx |xxxxxxxxxxxxx |xxxxxxxxxxxxx |          138 |          138 |          138 |          138 |xxxxxxxxxxxxx |xxxxxxxxxxxxx |xxxxxxxxxxxxx |          202 |          202 |          202 |          202 |xxxxxxxxxxxxx |xxxxxxxxxxxxx |xxxxxxxxxxxxx |          330 |          330 |          330 |          330 |xxxxxxxxxxxxx |xxxxxxxxxxxxx |xxxxxxxxxxxxx |          586 |          586 |          586 |          586 |xxxxxxxxxxxxx |xxxxxxxxxxxxx |xxxxxxxxxxxxx |         1102 |         1102 |         1102 |         1102 |xxxxxxxxxxxxx |xxxxxxxxxxxxx |xxxxxxxxxxxxx |         2128 |         2128 |         2128 |         2128 |xxxxxxxxxxxxx |xxxxxxxxxxxxx |xxxxxxxxxxxxx |         4180 |         4180 |         4180 |         4180 |xxxxxxxxxxxxx |xxxxxxxxxxxxx |xxxxxxxxxxxxx |         8284 |         8284 |         8284 |         8284 |
bpred_2lev.retstack_pops             xxxxxxxxxxxxx |xxxxxxxxxxxxx |xxxxxxxxxxxxx |           80 |           80 |           80 |           80 |xxxxxxxxxxxxx |xxxxxxxxxxxxx |xxxxxxxxxxxxx |           88 |           88 |           88 |           88 |xxxxxxxxxxxxx |xxxxxxxxxxxxx |xxxxxxxxxxxxx |          104 |          104 |          104 |          104 |xxxxxxxxxxxxx |xxxxxxxxxxxxx |xxxxxxxxxxxxx |          136 |          136 |          136 |          136 |xxxxxxxxxxxxx |xxxxxxxxxxxxx |xxxxxxxxxxxxx |          200 |          200 |          200 |          200 |xxxxxxxxxxxxx |xxxxxxxxxxxxx |xxxxxxxxxxxxx |          328 |          328 |          328 |          328 |xxxxxxxxxxxxx |xxxxxxxxxxxxx |xxxxxxxxxxxxx |          584 |          584 |          584 |          584 |xxxxxxxxxxxxx |xxxxxxxxxxxxx |xxxxxxxxxxxxx |         1100 |         1100 |         1100 |         1100 |xxxxxxxxxxxxx |xxxxxxxxxxxxx |xxxxxxxxxxxxx |         2126 |         2126 |         2126 |         2126 |xxxxxxxxxxxxx |xxxxxxxxxxxxx |xxxxxxxxxxxxx |         4178 |         4178 |         4178 |         4178 |xxxxxxxxxxxxx |xxxxxxxxxxxxx |xxxxxxxxxxxxx |         8282 |         8282 |         8282 |         8282 |
bpred_2lev.used_ras.PP               xxxxxxxxxxxxx |xxxxxxxxxxxxx |xxxxxxxxxxxxx |           80 |           80 |           80 |           80 |xxxxxxxxxxxxx |xxxxxxxxxxxxx |xxxxxxxxxxxxx |           88 |           88 |           88 |           88 |xxxxxxxxxxxxx |xxxxxxxxxxxxx |xxxxxxxxxxxxx |          104 |          104 |          104 |          104 |xxxxxxxxxxxxx |xxxxxxxxxxxxx |xxxxxxxxxxxxx |          136 |          136 |          136 |          136 |xxxxxxxxxxxxx |xxxxxxxxxxxxx |xxxxxxxxxxxxx |          200 |          200 |          200 |          200 |xxxxxxxxxxxxx |xxxxxxxxxxxxx |xxxxxxxxxxxxx |          328 |          328 |          328 |          328 |xxxxxxxxxxxxx |xxxxxxxxxxxxx |xxxxxxxxxxxxx |          584 |          584 |          584 |          584 |xxxxxxxxxxxxx |xxxxxxxxxxxxx |xxxxxxxxxxxxx |         1100 |         1100 |         1100 |         1100 |xxxxxxxxxxxxx |xxxxxxxxxxxxx |xxxxxxxxxxxxx |         2126 |         2126 |         2126 |         2126 |xxxxxxxxxxxxx |xxxxxxxxxxxxx |xxxxxxxxxxxxx |         4178 |         4178 |         4178 |         4178 |xxxxxxxxxxxxx |xxxxxxxxxxxxx |xxxxxxxxxxxxx |         8282 |         8282 |         8282 |         8282 |
bpred_2lev.ras_hits.PP               xxxxxxxxxxxxx |xxxxxxxxxxxxx |xxxxxxxxxxxxx |           79 |           79 |           79 |           79 |xxxxxxxxxxxxx |xxxxxxxxxxxxx |xxxxxxxxxxxxx |           87 |           87 |           87 |           87 |xxxxxxxxxxxxx |xxxxxxxxxxxxx |xxxxxxxxxxxxx |          103 |          103 |          103 |          103 |xxxxxxxxxxxxx |xxxxxxxxxxxxx |xxxxxxxxxxxxx |          135 |          135 |          135 |          135 |xxxxxxxxxxxxx |xxxxxxxxxxxxx |xxxxxxxxxxxxx |          199 |          199 |          199 |          199 |xxxxxxxxxxxxx |xxxxxxxxxxxxx |xxxxxxxxxxxxx |          327 |          327 |          327 |          327 |xxxxxxxxxxxxx |xxxxxxxxxxxxx |xxxxxxxxxxxxx |          583 |          583 |          583 |          583 |xxxxxxxxxxxxx |xxxxxxxxxxxxx |xxxxxxxxxxxxx |         1100 |         1100 |         1100 |         1100 |xxxxxxxxxxxxx |xxxxxxxxxxxxx |xxxxxxxxxxxxx |         2126 |         2126 |         2126 |         2126 |xxxxxxxxxxxxx |xxxxxxxxxxxxx |xxxxxxxxxxxxx |         4178 |         4178 |         4178 |         4178 |xxxxxxxxxxxxx |xxxxxxxxxxxxx |xxxxxxxxxxxxx |         8282 |         8282 |         8282 |         8282 |
bpred_2lev.ras_rate.PP               xxxxxxxxxxxxx |xxxxxxxxxxxxx |xxxxxxxxxxxxx |       0.9875 |       0.9875 |       0.9875 |       0.9875 |xxxxxxxxxxxxx |xxxxxxxxxxxxx |xxxxxxxxxxxxx |       0.9886 |       0.9886 |       0.9886 |       0.9886 |xxxxxxxxxxxxx |xxxxxxxxxxxxx |xxxxxxxxxxxxx |       0.9904 |       0.9904 |       0.9904 |       0.9904 |xxxxxxxxxxxxx |xxxxxxxxxxxxx |xxxxxxxxxxxxx |       0.9926 |       0.9926 |       0.9926 |       0.9926 |xxxxxxxxxxxxx |xxxxxxxxxxxxx |xxxxxxxxxxxxx |       0.9950 |       0.9950 |       0.9950 |       0.9950 |xxxxxxxxxxxxx |xxxxxxxxxxxxx |xxxxxxxxxxxxx |       0.9970 |       0.9970 |       0.9970 |       0.9970 |xxxxxxxxxxxxx |xxxxxxxxxxxxx |xxxxxxxxxxxxx |       0.9983 |       0.9983 |       0.9983 |       0.9983 |xxxxxxxxxxxxx |xxxxxxxxxxxxx |xxxxxxxxxxxxx |       1.0000 |       1.0000 |       1.0000 |       1.0000 |xxxxxxxxxxxxx |xxxxxxxxxxxxx |xxxxxxxxxxxxx |       1.0000 |       1.0000 |       1.0000 |       1.0000 |xxxxxxxxxxxxx |xxxxxxxxxxxxx |xxxxxxxxxxxxx |       1.0000 |       1.0000 |       1.0000 |       1.0000 |xxxxxxxxxxxxx |xxxxxxxxxxxxx |xxxxxxxxxxxxx |       1.0000 |       1.0000 |       1.0000 |       1.0000 |

Command list: 
	sslittle-na-sstrix-gcc -Wall -O3 -funroll-loops -finline-functions  -DRANDOM_SIZE=4096 -DOFFSET=8 -DSORT=tiled_mergesort sorts/tiled_mergesort325137018.c simpleMain.c -o tiled_mergesort1165096723
	sim-cache -cache:dl1 dl1:256:32:1:l -cache:dl2 dl2:131072:32:1:l -cache:il1 il1:256:32:1:l -cache:il2 dl2 tiled_mergesort1165096723
	sim-cache -cache:dl1 dl1:256:32:1:l -cache:dl2 dl2:65536:32:1:l -cache:il1 il1:256:32:1:l -cache:il2 dl2 tiled_mergesort1165096723
	sim-cache -cache:dl1 dl1:1:32:256:l -cache:dl2 dl2:1:32:131072:l -cache:il1 il1:1:32:256:l -cache:il2 dl2 tiled_mergesort1165096723
	sim-cache -cache:dl1 dl1:1:32:256:l -cache:dl2 dl2:1:32:65536:l -cache:il1 il1:1:32:256:l -cache:il2 dl2 tiled_mergesort1165096723
	sim-bpred -bpred bimod -bpred:bimod 512 tiled_mergesort1165096723
	sim-bpred -bpred bimod -bpred:bimod 1024 tiled_mergesort1165096723
	sim-bpred -bpred bimod -bpred:bimod 2048 tiled_mergesort1165096723
	sim-bpred -bpred 2lev -bpred:2lev 1 512 10 1 tiled_mergesort1165096723
	sim-bpred -bpred 2lev -bpred:2lev 1 1024 10 1 tiled_mergesort1165096723
	sim-bpred -bpred 2lev -bpred:2lev 1 2048 10 1 tiled_mergesort1165096723
	sim-bpred -bpred 2lev -bpred:2lev 1 4096 10 1 tiled_mergesort1165096723
	sslittle-na-sstrix-gcc -Wall -O3 -funroll-loops -finline-functions  -DRANDOM_SIZE=8192 -DOFFSET=8 -DSORT=tiled_mergesort sorts/tiled_mergesort325137018.c simpleMain.c -o tiled_mergesort1165096723
	sim-cache -cache:dl1 dl1:256:32:1:l -cache:dl2 dl2:131072:32:1:l -cache:il1 il1:256:32:1:l -cache:il2 dl2 tiled_mergesort1165096723
	sim-cache -cache:dl1 dl1:256:32:1:l -cache:dl2 dl2:65536:32:1:l -cache:il1 il1:256:32:1:l -cache:il2 dl2 tiled_mergesort1165096723
	sim-cache -cache:dl1 dl1:1:32:256:l -cache:dl2 dl2:1:32:131072:l -cache:il1 il1:1:32:256:l -cache:il2 dl2 tiled_mergesort1165096723
	sim-cache -cache:dl1 dl1:1:32:256:l -cache:dl2 dl2:1:32:65536:l -cache:il1 il1:1:32:256:l -cache:il2 dl2 tiled_mergesort1165096723
	sim-bpred -bpred bimod -bpred:bimod 512 tiled_mergesort1165096723
	sim-bpred -bpred bimod -bpred:bimod 1024 tiled_mergesort1165096723
	sim-bpred -bpred bimod -bpred:bimod 2048 tiled_mergesort1165096723
	sim-bpred -bpred 2lev -bpred:2lev 1 512 10 1 tiled_mergesort1165096723
	sim-bpred -bpred 2lev -bpred:2lev 1 1024 10 1 tiled_mergesort1165096723
	sim-bpred -bpred 2lev -bpred:2lev 1 2048 10 1 tiled_mergesort1165096723
	sim-bpred -bpred 2lev -bpred:2lev 1 4096 10 1 tiled_mergesort1165096723
	sslittle-na-sstrix-gcc -Wall -O3 -funroll-loops -finline-functions  -DRANDOM_SIZE=16384 -DOFFSET=8 -DSORT=tiled_mergesort sorts/tiled_mergesort325137018.c simpleMain.c -o tiled_mergesort1165096723
	sim-cache -cache:dl1 dl1:256:32:1:l -cache:dl2 dl2:131072:32:1:l -cache:il1 il1:256:32:1:l -cache:il2 dl2 tiled_mergesort1165096723
	sim-cache -cache:dl1 dl1:256:32:1:l -cache:dl2 dl2:65536:32:1:l -cache:il1 il1:256:32:1:l -cache:il2 dl2 tiled_mergesort1165096723
	sim-cache -cache:dl1 dl1:1:32:256:l -cache:dl2 dl2:1:32:131072:l -cache:il1 il1:1:32:256:l -cache:il2 dl2 tiled_mergesort1165096723
	sim-cache -cache:dl1 dl1:1:32:256:l -cache:dl2 dl2:1:32:65536:l -cache:il1 il1:1:32:256:l -cache:il2 dl2 tiled_mergesort1165096723
	sim-bpred -bpred bimod -bpred:bimod 512 tiled_mergesort1165096723
	sim-bpred -bpred bimod -bpred:bimod 1024 tiled_mergesort1165096723
	sim-bpred -bpred bimod -bpred:bimod 2048 tiled_mergesort1165096723
	sim-bpred -bpred 2lev -bpred:2lev 1 512 10 1 tiled_mergesort1165096723
	sim-bpred -bpred 2lev -bpred:2lev 1 1024 10 1 tiled_mergesort1165096723
	sim-bpred -bpred 2lev -bpred:2lev 1 2048 10 1 tiled_mergesort1165096723
	sim-bpred -bpred 2lev -bpred:2lev 1 4096 10 1 tiled_mergesort1165096723
	sslittle-na-sstrix-gcc -Wall -O3 -funroll-loops -finline-functions  -DRANDOM_SIZE=32768 -DOFFSET=8 -DSORT=tiled_mergesort sorts/tiled_mergesort325137018.c simpleMain.c -o tiled_mergesort1165096723
	sim-cache -cache:dl1 dl1:256:32:1:l -cache:dl2 dl2:131072:32:1:l -cache:il1 il1:256:32:1:l -cache:il2 dl2 tiled_mergesort1165096723
	sim-cache -cache:dl1 dl1:256:32:1:l -cache:dl2 dl2:65536:32:1:l -cache:il1 il1:256:32:1:l -cache:il2 dl2 tiled_mergesort1165096723
	sim-cache -cache:dl1 dl1:1:32:256:l -cache:dl2 dl2:1:32:131072:l -cache:il1 il1:1:32:256:l -cache:il2 dl2 tiled_mergesort1165096723
	sim-cache -cache:dl1 dl1:1:32:256:l -cache:dl2 dl2:1:32:65536:l -cache:il1 il1:1:32:256:l -cache:il2 dl2 tiled_mergesort1165096723
	sim-bpred -bpred bimod -bpred:bimod 512 tiled_mergesort1165096723
	sim-bpred -bpred bimod -bpred:bimod 1024 tiled_mergesort1165096723
	sim-bpred -bpred bimod -bpred:bimod 2048 tiled_mergesort1165096723
	sim-bpred -bpred 2lev -bpred:2lev 1 512 10 1 tiled_mergesort1165096723
	sim-bpred -bpred 2lev -bpred:2lev 1 1024 10 1 tiled_mergesort1165096723
	sim-bpred -bpred 2lev -bpred:2lev 1 2048 10 1 tiled_mergesort1165096723
	sim-bpred -bpred 2lev -bpred:2lev 1 4096 10 1 tiled_mergesort1165096723
	sslittle-na-sstrix-gcc -Wall -O3 -funroll-loops -finline-functions  -DRANDOM_SIZE=65536 -DOFFSET=8 -DSORT=tiled_mergesort sorts/tiled_mergesort325137018.c simpleMain.c -o tiled_mergesort1165096723
	sim-cache -cache:dl1 dl1:256:32:1:l -cache:dl2 dl2:131072:32:1:l -cache:il1 il1:256:32:1:l -cache:il2 dl2 tiled_mergesort1165096723
	sim-cache -cache:dl1 dl1:256:32:1:l -cache:dl2 dl2:65536:32:1:l -cache:il1 il1:256:32:1:l -cache:il2 dl2 tiled_mergesort1165096723
	sim-cache -cache:dl1 dl1:1:32:256:l -cache:dl2 dl2:1:32:131072:l -cache:il1 il1:1:32:256:l -cache:il2 dl2 tiled_mergesort1165096723
	sim-cache -cache:dl1 dl1:1:32:256:l -cache:dl2 dl2:1:32:65536:l -cache:il1 il1:1:32:256:l -cache:il2 dl2 tiled_mergesort1165096723
	sim-bpred -bpred bimod -bpred:bimod 512 tiled_mergesort1165096723
	sim-bpred -bpred bimod -bpred:bimod 1024 tiled_mergesort1165096723
	sim-bpred -bpred bimod -bpred:bimod 2048 tiled_mergesort1165096723
	sim-bpred -bpred 2lev -bpred:2lev 1 512 10 1 tiled_mergesort1165096723
	sim-bpred -bpred 2lev -bpred:2lev 1 1024 10 1 tiled_mergesort1165096723
	sim-bpred -bpred 2lev -bpred:2lev 1 2048 10 1 tiled_mergesort1165096723
	sim-bpred -bpred 2lev -bpred:2lev 1 4096 10 1 tiled_mergesort1165096723
	sslittle-na-sstrix-gcc -Wall -O3 -funroll-loops -finline-functions  -DRANDOM_SIZE=131072 -DOFFSET=8 -DSORT=tiled_mergesort sorts/tiled_mergesort325137018.c simpleMain.c -o tiled_mergesort1165096723
	sim-cache -cache:dl1 dl1:256:32:1:l -cache:dl2 dl2:131072:32:1:l -cache:il1 il1:256:32:1:l -cache:il2 dl2 tiled_mergesort1165096723
	sim-cache -cache:dl1 dl1:256:32:1:l -cache:dl2 dl2:65536:32:1:l -cache:il1 il1:256:32:1:l -cache:il2 dl2 tiled_mergesort1165096723
	sim-cache -cache:dl1 dl1:1:32:256:l -cache:dl2 dl2:1:32:131072:l -cache:il1 il1:1:32:256:l -cache:il2 dl2 tiled_mergesort1165096723
	sim-cache -cache:dl1 dl1:1:32:256:l -cache:dl2 dl2:1:32:65536:l -cache:il1 il1:1:32:256:l -cache:il2 dl2 tiled_mergesort1165096723
	sim-bpred -bpred bimod -bpred:bimod 512 tiled_mergesort1165096723
	sim-bpred -bpred bimod -bpred:bimod 1024 tiled_mergesort1165096723
	sim-bpred -bpred bimod -bpred:bimod 2048 tiled_mergesort1165096723
	sim-bpred -bpred 2lev -bpred:2lev 1 512 10 1 tiled_mergesort1165096723
	sim-bpred -bpred 2lev -bpred:2lev 1 1024 10 1 tiled_mergesort1165096723
	sim-bpred -bpred 2lev -bpred:2lev 1 2048 10 1 tiled_mergesort1165096723
	sim-bpred -bpred 2lev -bpred:2lev 1 4096 10 1 tiled_mergesort1165096723
	sslittle-na-sstrix-gcc -Wall -O3 -funroll-loops -finline-functions  -DRANDOM_SIZE=262144 -DOFFSET=8 -DSORT=tiled_mergesort sorts/tiled_mergesort325137018.c simpleMain.c -o tiled_mergesort1165096723
	sim-cache -cache:dl1 dl1:256:32:1:l -cache:dl2 dl2:131072:32:1:l -cache:il1 il1:256:32:1:l -cache:il2 dl2 tiled_mergesort1165096723
	sim-cache -cache:dl1 dl1:256:32:1:l -cache:dl2 dl2:65536:32:1:l -cache:il1 il1:256:32:1:l -cache:il2 dl2 tiled_mergesort1165096723
	sim-cache -cache:dl1 dl1:1:32:256:l -cache:dl2 dl2:1:32:131072:l -cache:il1 il1:1:32:256:l -cache:il2 dl2 tiled_mergesort1165096723
	sim-cache -cache:dl1 dl1:1:32:256:l -cache:dl2 dl2:1:32:65536:l -cache:il1 il1:1:32:256:l -cache:il2 dl2 tiled_mergesort1165096723
	sim-bpred -bpred bimod -bpred:bimod 512 tiled_mergesort1165096723
	sim-bpred -bpred bimod -bpred:bimod 1024 tiled_mergesort1165096723
	sim-bpred -bpred bimod -bpred:bimod 2048 tiled_mergesort1165096723
	sim-bpred -bpred 2lev -bpred:2lev 1 512 10 1 tiled_mergesort1165096723
	sim-bpred -bpred 2lev -bpred:2lev 1 1024 10 1 tiled_mergesort1165096723
	sim-bpred -bpred 2lev -bpred:2lev 1 2048 10 1 tiled_mergesort1165096723
	sim-bpred -bpred 2lev -bpred:2lev 1 4096 10 1 tiled_mergesort1165096723
	sslittle-na-sstrix-gcc -Wall -O3 -funroll-loops -finline-functions  -DRANDOM_SIZE=524288 -DOFFSET=8 -DSORT=tiled_mergesort sorts/tiled_mergesort325137018.c simpleMain.c -o tiled_mergesort1165096723
	sim-cache -cache:dl1 dl1:256:32:1:l -cache:dl2 dl2:131072:32:1:l -cache:il1 il1:256:32:1:l -cache:il2 dl2 tiled_mergesort1165096723
	sim-cache -cache:dl1 dl1:256:32:1:l -cache:dl2 dl2:65536:32:1:l -cache:il1 il1:256:32:1:l -cache:il2 dl2 tiled_mergesort1165096723
	sim-cache -cache:dl1 dl1:1:32:256:l -cache:dl2 dl2:1:32:131072:l -cache:il1 il1:1:32:256:l -cache:il2 dl2 tiled_mergesort1165096723
	sim-cache -cache:dl1 dl1:1:32:256:l -cache:dl2 dl2:1:32:65536:l -cache:il1 il1:1:32:256:l -cache:il2 dl2 tiled_mergesort1165096723
	sim-bpred -bpred bimod -bpred:bimod 512 tiled_mergesort1165096723
	sim-bpred -bpred bimod -bpred:bimod 1024 tiled_mergesort1165096723
	sim-bpred -bpred bimod -bpred:bimod 2048 tiled_mergesort1165096723
	sim-bpred -bpred 2lev -bpred:2lev 1 512 10 1 tiled_mergesort1165096723
	sim-bpred -bpred 2lev -bpred:2lev 1 1024 10 1 tiled_mergesort1165096723
	sim-bpred -bpred 2lev -bpred:2lev 1 2048 10 1 tiled_mergesort1165096723
	sim-bpred -bpred 2lev -bpred:2lev 1 4096 10 1 tiled_mergesort1165096723
	sslittle-na-sstrix-gcc -Wall -O3 -funroll-loops -finline-functions  -DRANDOM_SIZE=1048576 -DOFFSET=8 -DSORT=tiled_mergesort sorts/tiled_mergesort325137018.c simpleMain.c -o tiled_mergesort1165096723
	sim-cache -cache:dl1 dl1:256:32:1:l -cache:dl2 dl2:131072:32:1:l -cache:il1 il1:256:32:1:l -cache:il2 dl2 tiled_mergesort1165096723
	sim-cache -cache:dl1 dl1:256:32:1:l -cache:dl2 dl2:65536:32:1:l -cache:il1 il1:256:32:1:l -cache:il2 dl2 tiled_mergesort1165096723
	sim-cache -cache:dl1 dl1:1:32:256:l -cache:dl2 dl2:1:32:131072:l -cache:il1 il1:1:32:256:l -cache:il2 dl2 tiled_mergesort1165096723
	sim-cache -cache:dl1 dl1:1:32:256:l -cache:dl2 dl2:1:32:65536:l -cache:il1 il1:1:32:256:l -cache:il2 dl2 tiled_mergesort1165096723
	sim-bpred -bpred bimod -bpred:bimod 512 tiled_mergesort1165096723
	sim-bpred -bpred bimod -bpred:bimod 1024 tiled_mergesort1165096723
	sim-bpred -bpred bimod -bpred:bimod 2048 tiled_mergesort1165096723
	sim-bpred -bpred 2lev -bpred:2lev 1 512 10 1 tiled_mergesort1165096723
	sim-bpred -bpred 2lev -bpred:2lev 1 1024 10 1 tiled_mergesort1165096723
	sim-bpred -bpred 2lev -bpred:2lev 1 2048 10 1 tiled_mergesort1165096723
	sim-bpred -bpred 2lev -bpred:2lev 1 4096 10 1 tiled_mergesort1165096723
	sslittle-na-sstrix-gcc -Wall -O3 -funroll-loops -finline-functions  -DRANDOM_SIZE=2097152 -DOFFSET=8 -DSORT=tiled_mergesort sorts/tiled_mergesort325137018.c simpleMain.c -o tiled_mergesort1165096723
	sim-cache -cache:dl1 dl1:256:32:1:l -cache:dl2 dl2:131072:32:1:l -cache:il1 il1:256:32:1:l -cache:il2 dl2 tiled_mergesort1165096723
	sim-cache -cache:dl1 dl1:256:32:1:l -cache:dl2 dl2:65536:32:1:l -cache:il1 il1:256:32:1:l -cache:il2 dl2 tiled_mergesort1165096723
	sim-cache -cache:dl1 dl1:1:32:256:l -cache:dl2 dl2:1:32:131072:l -cache:il1 il1:1:32:256:l -cache:il2 dl2 tiled_mergesort1165096723
	sim-cache -cache:dl1 dl1:1:32:256:l -cache:dl2 dl2:1:32:65536:l -cache:il1 il1:1:32:256:l -cache:il2 dl2 tiled_mergesort1165096723
	sim-bpred -bpred bimod -bpred:bimod 512 tiled_mergesort1165096723
	sim-bpred -bpred bimod -bpred:bimod 1024 tiled_mergesort1165096723
	sim-bpred -bpred bimod -bpred:bimod 2048 tiled_mergesort1165096723
	sim-bpred -bpred 2lev -bpred:2lev 1 512 10 1 tiled_mergesort1165096723
	sim-bpred -bpred 2lev -bpred:2lev 1 1024 10 1 tiled_mergesort1165096723
	sim-bpred -bpred 2lev -bpred:2lev 1 2048 10 1 tiled_mergesort1165096723
	sim-bpred -bpred 2lev -bpred:2lev 1 4096 10 1 tiled_mergesort1165096723
	sslittle-na-sstrix-gcc -Wall -O3 -funroll-loops -finline-functions  -DRANDOM_SIZE=4194304 -DOFFSET=8 -DSORT=tiled_mergesort sorts/tiled_mergesort325137018.c simpleMain.c -o tiled_mergesort1165096723
	sim-cache -cache:dl1 dl1:256:32:1:l -cache:dl2 dl2:131072:32:1:l -cache:il1 il1:256:32:1:l -cache:il2 dl2 tiled_mergesort1165096723
	sim-cache -cache:dl1 dl1:256:32:1:l -cache:dl2 dl2:65536:32:1:l -cache:il1 il1:256:32:1:l -cache:il2 dl2 tiled_mergesort1165096723
	sim-cache -cache:dl1 dl1:1:32:256:l -cache:dl2 dl2:1:32:131072:l -cache:il1 il1:1:32:256:l -cache:il2 dl2 tiled_mergesort1165096723
	sim-cache -cache:dl1 dl1:1:32:256:l -cache:dl2 dl2:1:32:65536:l -cache:il1 il1:1:32:256:l -cache:il2 dl2 tiled_mergesort1165096723
	sim-bpred -bpred bimod -bpred:bimod 512 tiled_mergesort1165096723
	sim-bpred -bpred bimod -bpred:bimod 1024 tiled_mergesort1165096723
	sim-bpred -bpred bimod -bpred:bimod 2048 tiled_mergesort1165096723
	sim-bpred -bpred 2lev -bpred:2lev 1 512 10 1 tiled_mergesort1165096723
	sim-bpred -bpred 2lev -bpred:2lev 1 1024 10 1 tiled_mergesort1165096723
	sim-bpred -bpred 2lev -bpred:2lev 1 2048 10 1 tiled_mergesort1165096723
	sim-bpred -bpred 2lev -bpred:2lev 1 4096 10 1 tiled_mergesort1165096723
