Wed Jul 13 11:01:12 2005
Run as: "./do_simple -c random.org5 -o 5 tiled_mergesort"
-------------------------------------------------------------------------------------------------
sim-cache                                     4096 |         4096 |         4096 |         4096 |         8192 |         8192 |         8192 |         8192 |        16384 |        16384 |        16384 |        16384 |        32768 |        32768 |        32768 |        32768 |        65536 |        65536 |        65536 |        65536 |       131072 |       131072 |       131072 |       131072 |       262144 |       262144 |       262144 |       262144 |       524288 |       524288 |       524288 |       524288 |      1048576 |      1048576 |      1048576 |      1048576 |      2097152 |      2097152 |      2097152 |      2097152 |      4194304 |      4194304 |      4194304 |      4194304 |
-cache:dl1 dl1:256:32:1:l -cache:dl2 dl2:131072:32:1:l -cache:il1 il1:256:32:1:l -cache:il2 dl2
-cache:dl1 dl1:256:32:1:l -cache:dl2 dl2:65536:32:1:l -cache:il1 il1:256:32:1:l -cache:il2 dl2
-cache:dl1 dl1:1:32:256:l -cache:dl2 dl2:1:32:131072:l -cache:il1 il1:1:32:256:l -cache:il2 dl2
-cache:dl1 dl1:1:32:256:l -cache:dl2 dl2:1:32:65536:l -cache:il1 il1:1:32:256:l -cache:il2 dl2
-------------------------------------------------------------------------------------------------
sim_num_insn                                857110 |       857110 |       857110 |       857110 |      1746584 |      1746584 |      1746584 |      1746584 |      3956783 |      3956783 |      3956783 |      3956783 |      8063560 |      8063560 |      8063560 |      8063560 |     17983370 |     17983370 |     17983370 |     17983370 |     36564923 |     36564923 |     36564923 |     36564923 |     80568288 |     80568288 |     80568288 |     80568288 |    168427067 |    168427067 |    168427067 |    168427067 |    366534971 |    366534971 |    366534971 |    366534971 |    742891934 |    742891934 |    742891934 |    742891934 |   1604741871 |   1604741871 |   1604741871 |   1604741871 |
sim_num_refs                                228392 |       228392 |       228392 |       228392 |       471171 |       471171 |       471171 |       471171 |      1050972 |      1050972 |      1050972 |      1050972 |      2171170 |      2171170 |      2171170 |      2171170 |      4784864 |      4784864 |      4784864 |      4784864 |      9853600 |      9853600 |      9853600 |      9853600 |     21487754 |     21487754 |     21487754 |     21487754 |     45707011 |     45707011 |     45707011 |     45707011 |     98521922 |     98521922 |     98521922 |     98521922 |    201669512 |    201669512 |    201669512 |    201669512 |    431849020 |    431849020 |    431849020 |    431849020 |
sim_elapsed_time                                 1 |            1 |           11 |            5 |            1 |            1 |           16 |            8 |            2 |            1 |           27 |           14 |            2 |            3 |           49 |           25 |            5 |            6 |           91 |           45 |           10 |           10 |          167 |           78 |           23 |           22 |          288 |          112 |           48 |           47 |          398 |          137 |          102 |          102 |          457 |          197 |          206 |          207 |          571 |          312 |          446 |          445 |          832 |          567 |
sim_inst_rate                          857110.0000 |  857110.0000 |   77919.0909 |  171422.0000 | 1746584.0000 | 1746584.0000 |  109161.5000 |  218323.0000 | 1978391.5000 | 3956783.0000 |  146547.5185 |  282627.3571 | 4031780.0000 | 2687853.3333 |  164562.4490 |  322542.4000 | 3596674.0000 | 2997228.3333 |  197619.4505 |  399630.4444 | 3656492.3000 | 3656492.3000 |  218951.6347 |  468781.0641 | 3502969.0435 | 3662194.9091 |  279751.0000 |  719359.7143 | 3508897.2292 | 3583554.6170 |  423183.5854 | 1229394.6496 | 3593480.1078 | 3593480.1078 |  802045.8884 | 1860583.6091 | 3606271.5243 | 3588849.9227 | 1301036.6620 | 2381063.8910 | 3598075.9439 | 3606161.5079 | 1928776.2873 | 2830232.5767 |
il1.accesses                                857110 |       857110 |       857110 |       857110 |      1746584 |      1746584 |      1746584 |      1746584 |      3956783 |      3956783 |      3956783 |      3956783 |      8063560 |      8063560 |      8063560 |      8063560 |     17983370 |     17983370 |     17983370 |     17983370 |     36564923 |     36564923 |     36564923 |     36564923 |     80568288 |     80568288 |     80568288 |     80568288 |    168427067 |    168427067 |    168427067 |    168427067 |    366534971 |    366534971 |    366534971 |    366534971 |    742891934 |    742891934 |    742891934 |    742891934 |   1604741871 |   1604741871 |   1604741871 |   1604741871 |
il1.hits                                    856441 |       856441 |       856536 |       856536 |      1745894 |      1745894 |      1745986 |      1745986 |      3956110 |      3956110 |      3956210 |      3956210 |      8062870 |      8062870 |      8062962 |      8062962 |     17982696 |     17982696 |     17982792 |     17982792 |     36564231 |     36564231 |     36564324 |     36564324 |     80567616 |     80567616 |     80567712 |     80567712 |    168424788 |    168424788 |    168426394 |    168426394 |    366531166 |    366531166 |    366534316 |    366534316 |    742885011 |    742885011 |    742891261 |    742891261 |   1604728802 |   1604728802 |   1604741216 |   1604741216 |
il1.misses                                     669 |          669 |          574 |          574 |          690 |          690 |          598 |          598 |          673 |          673 |          573 |          573 |          690 |          690 |          598 |          598 |          674 |          674 |          578 |          578 |          692 |          692 |          599 |          599 |          672 |          672 |          576 |          576 |         2279 |         2279 |          673 |          673 |         3805 |         3805 |          655 |          655 |         6923 |         6923 |          673 |          673 |        13069 |        13069 |          655 |          655 |
il1.replacements                               426 |          426 |          318 |          318 |          446 |          446 |          342 |          342 |          432 |          432 |          317 |          317 |          446 |          446 |          342 |          342 |          432 |          432 |          322 |          322 |          448 |          448 |          343 |          343 |          443 |          443 |          320 |          320 |         2054 |         2054 |          417 |          417 |         3582 |         3582 |          399 |          399 |         6698 |         6698 |          417 |          417 |        12846 |        12846 |          399 |          399 |
il1.writebacks                                   0 |            0 |            0 |            0 |            0 |            0 |            0 |            0 |            0 |            0 |            0 |            0 |            0 |            0 |            0 |            0 |            0 |            0 |            0 |            0 |            0 |            0 |            0 |            0 |            0 |            0 |            0 |            0 |            0 |            0 |            0 |            0 |            0 |            0 |            0 |            0 |            0 |            0 |            0 |            0 |            0 |            0 |            0 |            0 |
il1.invalidations                                0 |            0 |            0 |            0 |            0 |            0 |            0 |            0 |            0 |            0 |            0 |            0 |            0 |            0 |            0 |            0 |            0 |            0 |            0 |            0 |            0 |            0 |            0 |            0 |            0 |            0 |            0 |            0 |            0 |            0 |            0 |            0 |            0 |            0 |            0 |            0 |            0 |            0 |            0 |            0 |            0 |            0 |            0 |            0 |
il1.miss_rate                               0.0008 |       0.0008 |       0.0007 |       0.0007 |       0.0004 |       0.0004 |       0.0003 |       0.0003 |       0.0002 |       0.0002 |       0.0001 |       0.0001 |       0.0001 |       0.0001 |       0.0001 |       0.0001 |       0.0000 |       0.0000 |       0.0000 |       0.0000 |       0.0000 |       0.0000 |       0.0000 |       0.0000 |       0.0000 |       0.0000 |       0.0000 |       0.0000 |       0.0000 |       0.0000 |       0.0000 |       0.0000 |       0.0000 |       0.0000 |       0.0000 |       0.0000 |       0.0000 |       0.0000 |       0.0000 |       0.0000 |       0.0000 |       0.0000 |       0.0000 |       0.0000 |
il1.repl_rate                               0.0005 |       0.0005 |       0.0004 |       0.0004 |       0.0003 |       0.0003 |       0.0002 |       0.0002 |       0.0001 |       0.0001 |       0.0001 |       0.0001 |       0.0001 |       0.0001 |       0.0000 |       0.0000 |       0.0000 |       0.0000 |       0.0000 |       0.0000 |       0.0000 |       0.0000 |       0.0000 |       0.0000 |       0.0000 |       0.0000 |       0.0000 |       0.0000 |       0.0000 |       0.0000 |       0.0000 |       0.0000 |       0.0000 |       0.0000 |       0.0000 |       0.0000 |       0.0000 |       0.0000 |       0.0000 |       0.0000 |       0.0000 |       0.0000 |       0.0000 |       0.0000 |
il1.wb_rate                                 0.0000 |       0.0000 |       0.0000 |       0.0000 |       0.0000 |       0.0000 |       0.0000 |       0.0000 |       0.0000 |       0.0000 |       0.0000 |       0.0000 |       0.0000 |       0.0000 |       0.0000 |       0.0000 |       0.0000 |       0.0000 |       0.0000 |       0.0000 |       0.0000 |       0.0000 |       0.0000 |       0.0000 |       0.0000 |       0.0000 |       0.0000 |       0.0000 |       0.0000 |       0.0000 |       0.0000 |       0.0000 |       0.0000 |       0.0000 |       0.0000 |       0.0000 |       0.0000 |       0.0000 |       0.0000 |       0.0000 |       0.0000 |       0.0000 |       0.0000 |       0.0000 |
il1.inv_rate                                0.0000 |       0.0000 |       0.0000 |       0.0000 |       0.0000 |       0.0000 |       0.0000 |       0.0000 |       0.0000 |       0.0000 |       0.0000 |       0.0000 |       0.0000 |       0.0000 |       0.0000 |       0.0000 |       0.0000 |       0.0000 |       0.0000 |       0.0000 |       0.0000 |       0.0000 |       0.0000 |       0.0000 |       0.0000 |       0.0000 |       0.0000 |       0.0000 |       0.0000 |       0.0000 |       0.0000 |       0.0000 |       0.0000 |       0.0000 |       0.0000 |       0.0000 |       0.0000 |       0.0000 |       0.0000 |       0.0000 |       0.0000 |       0.0000 |       0.0000 |       0.0000 |
dl1.accesses                                244858 |       244858 |       244858 |       244858 |       504021 |       504021 |       504021 |       504021 |      1116590 |      1116590 |      1116590 |      1116590 |      2302324 |      2302324 |      2302324 |      2302324 |      5047090 |      5047090 |      5047090 |      5047090 |     10377970 |     10377970 |     10377970 |     10377970 |     22536412 |     22536412 |     22536412 |     22536412 |     47804245 |     47804245 |     47804245 |     47804245 |    102716308 |    102716308 |    102716308 |    102716308 |    210058202 |    210058202 |    210058202 |    210058202 |    448626318 |    448626318 |    448626318 |    448626318 |
dl1.hits                                    217205 |       217205 |       237919 |       237919 |       454440 |       454440 |       489830 |       489830 |       997980 |       997980 |      1082039 |      1082039 |      2087959 |      2087959 |      2230530 |      2230530 |      4537227 |      4537227 |      4877503 |      4877503 |      9448179 |      9448179 |     10026644 |     10026644 |     20357160 |     20357160 |     21728207 |     21728207 |     43460766 |     43460766 |     46006171 |     46006171 |     92748998 |     92748998 |     98697831 |     98697831 |    191526831 |    191526831 |    201821891 |    201821891 |    406435893 |    406435893 |    430457279 |    430457279 |
dl1.misses                                   27653 |        27653 |         6939 |         6939 |        49581 |        49581 |        14191 |        14191 |       118610 |       118610 |        34551 |        34551 |       214365 |       214365 |        71794 |        71794 |       509863 |       509863 |       169587 |       169587 |       929791 |       929791 |       351326 |       351326 |      2179252 |      2179252 |       808205 |       808205 |      4343479 |      4343479 |      1798074 |      1798074 |      9967310 |      9967310 |      4018477 |      4018477 |     18531371 |     18531371 |      8236311 |      8236311 |     42190425 |     42190425 |     18169039 |     18169039 |
dl1.replacements                             27397 |        27397 |         6683 |         6683 |        49325 |        49325 |        13935 |        13935 |       118354 |       118354 |        34295 |        34295 |       214109 |       214109 |        71538 |        71538 |       509607 |       509607 |       169331 |       169331 |       929535 |       929535 |       351070 |       351070 |      2178996 |      2178996 |       807949 |       807949 |      4343223 |      4343223 |      1797818 |      1797818 |      9967054 |      9967054 |      4018221 |      4018221 |     18531115 |     18531115 |      8236055 |      8236055 |     42190169 |     42190169 |     18168783 |     18168783 |
dl1.writebacks                               14867 |        14867 |         5044 |         5044 |        26931 |        26931 |         9768 |         9768 |        63300 |        63300 |        23368 |        23368 |       115561 |       115561 |        46391 |        46391 |       270225 |       270225 |       108930 |       108930 |       496365 |       496365 |       217392 |       217392 |      1147908 |      1147908 |       500504 |       500504 |      2289175 |      2289175 |      1065914 |      1065914 |      5198978 |      5198978 |      2394575 |      2394575 |      9705677 |      9705677 |      4785187 |      4785187 |     21901287 |     21901287 |     10626371 |     10626371 |
dl1.invalidations                                0 |            0 |            0 |            0 |            0 |            0 |            0 |            0 |            0 |            0 |            0 |            0 |            0 |            0 |            0 |            0 |            0 |            0 |            0 |            0 |            0 |            0 |            0 |            0 |            0 |            0 |            0 |            0 |            0 |            0 |            0 |            0 |            0 |            0 |            0 |            0 |            0 |            0 |            0 |            0 |            0 |            0 |            0 |            0 |
dl1.miss_rate                               0.1129 |       0.1129 |       0.0283 |       0.0283 |       0.0984 |       0.0984 |       0.0282 |       0.0282 |       0.1062 |       0.1062 |       0.0309 |       0.0309 |       0.0931 |       0.0931 |       0.0312 |       0.0312 |       0.1010 |       0.1010 |       0.0336 |       0.0336 |       0.0896 |       0.0896 |       0.0339 |       0.0339 |       0.0967 |       0.0967 |       0.0359 |       0.0359 |       0.0909 |       0.0909 |       0.0376 |       0.0376 |       0.0970 |       0.0970 |       0.0391 |       0.0391 |       0.0882 |       0.0882 |       0.0392 |       0.0392 |       0.0940 |       0.0940 |       0.0405 |       0.0405 |
dl1.repl_rate                               0.1119 |       0.1119 |       0.0273 |       0.0273 |       0.0979 |       0.0979 |       0.0276 |       0.0276 |       0.1060 |       0.1060 |       0.0307 |       0.0307 |       0.0930 |       0.0930 |       0.0311 |       0.0311 |       0.1010 |       0.1010 |       0.0336 |       0.0336 |       0.0896 |       0.0896 |       0.0338 |       0.0338 |       0.0967 |       0.0967 |       0.0359 |       0.0359 |       0.0909 |       0.0909 |       0.0376 |       0.0376 |       0.0970 |       0.0970 |       0.0391 |       0.0391 |       0.0882 |       0.0882 |       0.0392 |       0.0392 |       0.0940 |       0.0940 |       0.0405 |       0.0405 |
dl1.wb_rate                                 0.0607 |       0.0607 |       0.0206 |       0.0206 |       0.0534 |       0.0534 |       0.0194 |       0.0194 |       0.0567 |       0.0567 |       0.0209 |       0.0209 |       0.0502 |       0.0502 |       0.0201 |       0.0201 |       0.0535 |       0.0535 |       0.0216 |       0.0216 |       0.0478 |       0.0478 |       0.0209 |       0.0209 |       0.0509 |       0.0509 |       0.0222 |       0.0222 |       0.0479 |       0.0479 |       0.0223 |       0.0223 |       0.0506 |       0.0506 |       0.0233 |       0.0233 |       0.0462 |       0.0462 |       0.0228 |       0.0228 |       0.0488 |       0.0488 |       0.0237 |       0.0237 |
dl1.inv_rate                                0.0000 |       0.0000 |       0.0000 |       0.0000 |       0.0000 |       0.0000 |       0.0000 |       0.0000 |       0.0000 |       0.0000 |       0.0000 |       0.0000 |       0.0000 |       0.0000 |       0.0000 |       0.0000 |       0.0000 |       0.0000 |       0.0000 |       0.0000 |       0.0000 |       0.0000 |       0.0000 |       0.0000 |       0.0000 |       0.0000 |       0.0000 |       0.0000 |       0.0000 |       0.0000 |       0.0000 |       0.0000 |       0.0000 |       0.0000 |       0.0000 |       0.0000 |       0.0000 |       0.0000 |       0.0000 |       0.0000 |       0.0000 |       0.0000 |       0.0000 |       0.0000 |
dl2.accesses                                 43189 |        43189 |        12557 |        12557 |        77202 |        77202 |        24557 |        24557 |       182583 |       182583 |        58492 |        58492 |       330616 |       330616 |       118783 |       118783 |       780762 |       780762 |       279095 |       279095 |      1426848 |      1426848 |       569317 |       569317 |      3327832 |      3327832 |      1309285 |      1309285 |      6634933 |      6634933 |      2864661 |      2864661 |     15170093 |     15170093 |      6413707 |      6413707 |     28243971 |     28243971 |     13022171 |     13022171 |     64104781 |     64104781 |     28796065 |     28796065 |
dl2.hits                                     41213 |        41213 |        10599 |        10599 |        74182 |        74182 |        21556 |        21556 |       177536 |       177536 |        53463 |        53463 |       321452 |       321452 |       109637 |       109637 |       763422 |       763422 |       261773 |       261773 |      1393107 |      1393107 |       535595 |       535595 |      3261328 |      3261222 |      1242814 |      1206148 |      6392797 |      6227391 |      2697380 |      2343006 |     14195025 |     13988032 |      5232243 |      5110708 |     25378805 |     25356484 |     10135912 |      9894332 |     57283137 |     57281904 |     21976097 |     21493327 |
dl2.misses                                    1976 |         1976 |         1958 |         1958 |         3020 |         3020 |         3001 |         3001 |         5047 |         5047 |         5029 |         5029 |         9164 |         9164 |         9146 |         9146 |        17340 |        17340 |        17322 |        17322 |        33741 |        33741 |        33722 |        33722 |        66504 |        66610 |        66471 |       103137 |       242136 |       407542 |       167281 |       521655 |       975068 |      1182061 |      1181464 |      1302999 |      2865166 |      2887487 |      2886259 |      3127839 |      6821644 |      6822877 |      6819968 |      7302738 |
dl2.replacements                               165 |          165 |            0 |            0 |          184 |          184 |            0 |            0 |          166 |          166 |            0 |            0 |          184 |          184 |            0 |            0 |          168 |          168 |            0 |            0 |          184 |          184 |            0 |            0 |          192 |         1074 |            0 |        37601 |       142420 |       342006 |        36209 |       456119 |       843996 |      1116525 |      1050392 |      1237463 |      2734094 |      2821951 |      2755187 |      3062303 |      6690572 |      6757341 |      6688896 |      7237202 |
dl2.writebacks                                 114 |          114 |            0 |            0 |          131 |          131 |            0 |            0 |          114 |          114 |            0 |            0 |          131 |          131 |            0 |            0 |          115 |          115 |            0 |            0 |          131 |          131 |            0 |            0 |          136 |          698 |            0 |        37171 |        98608 |       264983 |        35741 |       357076 |       723097 |       755293 |       722136 |       876211 |      1804714 |      1804875 |      1771483 |      2045483 |      4165942 |      4166314 |      4132322 |      4647175 |
dl2.invalidations                                0 |            0 |            0 |            0 |            0 |            0 |            0 |            0 |            0 |            0 |            0 |            0 |            0 |            0 |            0 |            0 |            0 |            0 |            0 |            0 |            0 |            0 |            0 |            0 |            0 |            0 |            0 |            0 |            0 |            0 |            0 |            0 |            0 |            0 |            0 |            0 |            0 |            0 |            0 |            0 |            0 |            0 |            0 |            0 |
dl2.miss_rate                               0.0458 |       0.0458 |       0.1559 |       0.1559 |       0.0391 |       0.0391 |       0.1222 |       0.1222 |       0.0276 |       0.0276 |       0.0860 |       0.0860 |       0.0277 |       0.0277 |       0.0770 |       0.0770 |       0.0222 |       0.0222 |       0.0621 |       0.0621 |       0.0236 |       0.0236 |       0.0592 |       0.0592 |       0.0200 |       0.0200 |       0.0508 |       0.0788 |       0.0365 |       0.0614 |       0.0584 |       0.1821 |       0.0643 |       0.0779 |       0.1842 |       0.2032 |       0.1014 |       0.1022 |       0.2216 |       0.2402 |       0.1064 |       0.1064 |       0.2368 |       0.2536 |
dl2.repl_rate                               0.0038 |       0.0038 |       0.0000 |       0.0000 |       0.0024 |       0.0024 |       0.0000 |       0.0000 |       0.0009 |       0.0009 |       0.0000 |       0.0000 |       0.0006 |       0.0006 |       0.0000 |       0.0000 |       0.0002 |       0.0002 |       0.0000 |       0.0000 |       0.0001 |       0.0001 |       0.0000 |       0.0000 |       0.0001 |       0.0003 |       0.0000 |       0.0287 |       0.0215 |       0.0515 |       0.0126 |       0.1592 |       0.0556 |       0.0736 |       0.1638 |       0.1929 |       0.0968 |       0.0999 |       0.2116 |       0.2352 |       0.1044 |       0.1054 |       0.2323 |       0.2513 |
dl2.wb_rate                                 0.0026 |       0.0026 |       0.0000 |       0.0000 |       0.0017 |       0.0017 |       0.0000 |       0.0000 |       0.0006 |       0.0006 |       0.0000 |       0.0000 |       0.0004 |       0.0004 |       0.0000 |       0.0000 |       0.0001 |       0.0001 |       0.0000 |       0.0000 |       0.0001 |       0.0001 |       0.0000 |       0.0000 |       0.0000 |       0.0002 |       0.0000 |       0.0284 |       0.0149 |       0.0399 |       0.0125 |       0.1246 |       0.0477 |       0.0498 |       0.1126 |       0.1366 |       0.0639 |       0.0639 |       0.1360 |       0.1571 |       0.0650 |       0.0650 |       0.1435 |       0.1614 |
dl2.inv_rate                                0.0000 |       0.0000 |       0.0000 |       0.0000 |       0.0000 |       0.0000 |       0.0000 |       0.0000 |       0.0000 |       0.0000 |       0.0000 |       0.0000 |       0.0000 |       0.0000 |       0.0000 |       0.0000 |       0.0000 |       0.0000 |       0.0000 |       0.0000 |       0.0000 |       0.0000 |       0.0000 |       0.0000 |       0.0000 |       0.0000 |       0.0000 |       0.0000 |       0.0000 |       0.0000 |       0.0000 |       0.0000 |       0.0000 |       0.0000 |       0.0000 |       0.0000 |       0.0000 |       0.0000 |       0.0000 |       0.0000 |       0.0000 |       0.0000 |       0.0000 |       0.0000 |
itlb.accesses                               857110 |       857110 |       857110 |       857110 |      1746584 |      1746584 |      1746584 |      1746584 |      3956783 |      3956783 |      3956783 |      3956783 |      8063560 |      8063560 |      8063560 |      8063560 |     17983370 |     17983370 |     17983370 |     17983370 |     36564923 |     36564923 |     36564923 |     36564923 |     80568288 |     80568288 |     80568288 |     80568288 |    168427067 |    168427067 |    168427067 |    168427067 |    366534971 |    366534971 |    366534971 |    366534971 |    742891934 |    742891934 |    742891934 |    742891934 |   1604741871 |   1604741871 |   1604741871 |   1604741871 |
itlb.hits                                   857098 |       857098 |       857098 |       857098 |      1746572 |      1746572 |      1746572 |      1746572 |      3956771 |      3956771 |      3956771 |      3956771 |      8063548 |      8063548 |      8063548 |      8063548 |     17983358 |     17983358 |     17983358 |     17983358 |     36564911 |     36564911 |     36564911 |     36564911 |     80568276 |     80568276 |     80568276 |     80568276 |    168427055 |    168427055 |    168427055 |    168427055 |    366534959 |    366534959 |    366534959 |    366534959 |    742891922 |    742891922 |    742891922 |    742891922 |   1604741859 |   1604741859 |   1604741859 |   1604741859 |
itlb.misses                                     12 |           12 |           12 |           12 |           12 |           12 |           12 |           12 |           12 |           12 |           12 |           12 |           12 |           12 |           12 |           12 |           12 |           12 |           12 |           12 |           12 |           12 |           12 |           12 |           12 |           12 |           12 |           12 |           12 |           12 |           12 |           12 |           12 |           12 |           12 |           12 |           12 |           12 |           12 |           12 |           12 |           12 |           12 |           12 |
itlb.replacements                                0 |            0 |            0 |            0 |            0 |            0 |            0 |            0 |            0 |            0 |            0 |            0 |            0 |            0 |            0 |            0 |            0 |            0 |            0 |            0 |            0 |            0 |            0 |            0 |            0 |            0 |            0 |            0 |            0 |            0 |            0 |            0 |            0 |            0 |            0 |            0 |            0 |            0 |            0 |            0 |            0 |            0 |            0 |            0 |
itlb.writebacks                                  0 |            0 |            0 |            0 |            0 |            0 |            0 |            0 |            0 |            0 |            0 |            0 |            0 |            0 |            0 |            0 |            0 |            0 |            0 |            0 |            0 |            0 |            0 |            0 |            0 |            0 |            0 |            0 |            0 |            0 |            0 |            0 |            0 |            0 |            0 |            0 |            0 |            0 |            0 |            0 |            0 |            0 |            0 |            0 |
itlb.invalidations                               0 |            0 |            0 |            0 |            0 |            0 |            0 |            0 |            0 |            0 |            0 |            0 |            0 |            0 |            0 |            0 |            0 |            0 |            0 |            0 |            0 |            0 |            0 |            0 |            0 |            0 |            0 |            0 |            0 |            0 |            0 |            0 |            0 |            0 |            0 |            0 |            0 |            0 |            0 |            0 |            0 |            0 |            0 |            0 |
itlb.miss_rate                              0.0000 |       0.0000 |       0.0000 |       0.0000 |       0.0000 |       0.0000 |       0.0000 |       0.0000 |       0.0000 |       0.0000 |       0.0000 |       0.0000 |       0.0000 |       0.0000 |       0.0000 |       0.0000 |       0.0000 |       0.0000 |       0.0000 |       0.0000 |       0.0000 |       0.0000 |       0.0000 |       0.0000 |       0.0000 |       0.0000 |       0.0000 |       0.0000 |       0.0000 |       0.0000 |       0.0000 |       0.0000 |       0.0000 |       0.0000 |       0.0000 |       0.0000 |       0.0000 |       0.0000 |       0.0000 |       0.0000 |       0.0000 |       0.0000 |       0.0000 |       0.0000 |
itlb.repl_rate                              0.0000 |       0.0000 |       0.0000 |       0.0000 |       0.0000 |       0.0000 |       0.0000 |       0.0000 |       0.0000 |       0.0000 |       0.0000 |       0.0000 |       0.0000 |       0.0000 |       0.0000 |       0.0000 |       0.0000 |       0.0000 |       0.0000 |       0.0000 |       0.0000 |       0.0000 |       0.0000 |       0.0000 |       0.0000 |       0.0000 |       0.0000 |       0.0000 |       0.0000 |       0.0000 |       0.0000 |       0.0000 |       0.0000 |       0.0000 |       0.0000 |       0.0000 |       0.0000 |       0.0000 |       0.0000 |       0.0000 |       0.0000 |       0.0000 |       0.0000 |       0.0000 |
itlb.wb_rate                                0.0000 |       0.0000 |       0.0000 |       0.0000 |       0.0000 |       0.0000 |       0.0000 |       0.0000 |       0.0000 |       0.0000 |       0.0000 |       0.0000 |       0.0000 |       0.0000 |       0.0000 |       0.0000 |       0.0000 |       0.0000 |       0.0000 |       0.0000 |       0.0000 |       0.0000 |       0.0000 |       0.0000 |       0.0000 |       0.0000 |       0.0000 |       0.0000 |       0.0000 |       0.0000 |       0.0000 |       0.0000 |       0.0000 |       0.0000 |       0.0000 |       0.0000 |       0.0000 |       0.0000 |       0.0000 |       0.0000 |       0.0000 |       0.0000 |       0.0000 |       0.0000 |
itlb.inv_rate                               0.0000 |       0.0000 |       0.0000 |       0.0000 |       0.0000 |       0.0000 |       0.0000 |       0.0000 |       0.0000 |       0.0000 |       0.0000 |       0.0000 |       0.0000 |       0.0000 |       0.0000 |       0.0000 |       0.0000 |       0.0000 |       0.0000 |       0.0000 |       0.0000 |       0.0000 |       0.0000 |       0.0000 |       0.0000 |       0.0000 |       0.0000 |       0.0000 |       0.0000 |       0.0000 |       0.0000 |       0.0000 |       0.0000 |       0.0000 |       0.0000 |       0.0000 |       0.0000 |       0.0000 |       0.0000 |       0.0000 |       0.0000 |       0.0000 |       0.0000 |       0.0000 |
dtlb.accesses                               244858 |       244858 |       244858 |       244858 |       504021 |       504021 |       504021 |       504021 |      1116590 |      1116590 |      1116590 |      1116590 |      2302324 |      2302324 |      2302324 |      2302324 |      5047090 |      5047090 |      5047090 |      5047090 |     10377970 |     10377970 |     10377970 |     10377970 |     22536412 |     22536412 |     22536412 |     22536412 |     47804245 |     47804245 |     47804245 |     47804245 |    102716308 |    102716308 |    102716308 |    102716308 |    210058202 |    210058202 |    210058202 |    210058202 |    448626318 |    448626318 |    448626318 |    448626318 |
dtlb.hits                                   244842 |       244842 |       244842 |       244842 |       503997 |       503997 |       503997 |       503997 |      1116550 |      1116550 |      1116550 |      1116550 |      2302252 |      2302252 |      2302252 |      2302252 |      5046905 |      5046905 |      5046905 |      5046905 |     10375544 |     10375544 |     10375544 |     10375544 |     22530998 |     22530998 |     22530998 |     22530998 |     47791493 |     47791493 |     47791493 |     47791493 |    102688768 |    102688768 |    102688768 |    102688768 |    209999044 |    209999044 |    209999044 |    209999044 |    448499804 |    448499804 |    448499804 |    448499804 |
dtlb.misses                                     16 |           16 |           16 |           16 |           24 |           24 |           24 |           24 |           40 |           40 |           40 |           40 |           72 |           72 |           72 |           72 |          185 |          185 |          185 |          185 |         2426 |         2426 |         2426 |         2426 |         5414 |         5414 |         5414 |         5414 |        12752 |        12752 |        12752 |        12752 |        27540 |        27540 |        27540 |        27540 |        59158 |        59158 |        59158 |        59158 |       126514 |       126514 |       126514 |       126514 |
dtlb.replacements                                0 |            0 |            0 |            0 |            0 |            0 |            0 |            0 |            0 |            0 |            0 |            0 |            0 |            0 |            0 |            0 |           57 |           57 |           57 |           57 |         2298 |         2298 |         2298 |         2298 |         5286 |         5286 |         5286 |         5286 |        12624 |        12624 |        12624 |        12624 |        27412 |        27412 |        27412 |        27412 |        59030 |        59030 |        59030 |        59030 |       126386 |       126386 |       126386 |       126386 |
dtlb.writebacks                                  0 |            0 |            0 |            0 |            0 |            0 |            0 |            0 |            0 |            0 |            0 |            0 |            0 |            0 |            0 |            0 |           37 |           37 |           37 |           37 |         1333 |         1333 |         1333 |         1333 |         3029 |         3029 |         3029 |         3029 |         7088 |         7088 |         7088 |         7088 |        15254 |        15254 |        15254 |        15254 |        32613 |        32613 |        32613 |        32613 |        69382 |        69382 |        69382 |        69382 |
dtlb.invalidations                               0 |            0 |            0 |            0 |            0 |            0 |            0 |            0 |            0 |            0 |            0 |            0 |            0 |            0 |            0 |            0 |            0 |            0 |            0 |            0 |            0 |            0 |            0 |            0 |            0 |            0 |            0 |            0 |            0 |            0 |            0 |            0 |            0 |            0 |            0 |            0 |            0 |            0 |            0 |            0 |            0 |            0 |            0 |            0 |
dtlb.miss_rate                              0.0001 |       0.0001 |       0.0001 |       0.0001 |       0.0000 |       0.0000 |       0.0000 |       0.0000 |       0.0000 |       0.0000 |       0.0000 |       0.0000 |       0.0000 |       0.0000 |       0.0000 |       0.0000 |       0.0000 |       0.0000 |       0.0000 |       0.0000 |       0.0002 |       0.0002 |       0.0002 |       0.0002 |       0.0002 |       0.0002 |       0.0002 |       0.0002 |       0.0003 |       0.0003 |       0.0003 |       0.0003 |       0.0003 |       0.0003 |       0.0003 |       0.0003 |       0.0003 |       0.0003 |       0.0003 |       0.0003 |       0.0003 |       0.0003 |       0.0003 |       0.0003 |
dtlb.repl_rate                              0.0000 |       0.0000 |       0.0000 |       0.0000 |       0.0000 |       0.0000 |       0.0000 |       0.0000 |       0.0000 |       0.0000 |       0.0000 |       0.0000 |       0.0000 |       0.0000 |       0.0000 |       0.0000 |       0.0000 |       0.0000 |       0.0000 |       0.0000 |       0.0002 |       0.0002 |       0.0002 |       0.0002 |       0.0002 |       0.0002 |       0.0002 |       0.0002 |       0.0003 |       0.0003 |       0.0003 |       0.0003 |       0.0003 |       0.0003 |       0.0003 |       0.0003 |       0.0003 |       0.0003 |       0.0003 |       0.0003 |       0.0003 |       0.0003 |       0.0003 |       0.0003 |
dtlb.wb_rate                                0.0000 |       0.0000 |       0.0000 |       0.0000 |       0.0000 |       0.0000 |       0.0000 |       0.0000 |       0.0000 |       0.0000 |       0.0000 |       0.0000 |       0.0000 |       0.0000 |       0.0000 |       0.0000 |       0.0000 |       0.0000 |       0.0000 |       0.0000 |       0.0001 |       0.0001 |       0.0001 |       0.0001 |       0.0001 |       0.0001 |       0.0001 |       0.0001 |       0.0001 |       0.0001 |       0.0001 |       0.0001 |       0.0001 |       0.0001 |       0.0001 |       0.0001 |       0.0002 |       0.0002 |       0.0002 |       0.0002 |       0.0002 |       0.0002 |       0.0002 |       0.0002 |
dtlb.inv_rate                               0.0000 |       0.0000 |       0.0000 |       0.0000 |       0.0000 |       0.0000 |       0.0000 |       0.0000 |       0.0000 |       0.0000 |       0.0000 |       0.0000 |       0.0000 |       0.0000 |       0.0000 |       0.0000 |       0.0000 |       0.0000 |       0.0000 |       0.0000 |       0.0000 |       0.0000 |       0.0000 |       0.0000 |       0.0000 |       0.0000 |       0.0000 |       0.0000 |       0.0000 |       0.0000 |       0.0000 |       0.0000 |       0.0000 |       0.0000 |       0.0000 |       0.0000 |       0.0000 |       0.0000 |       0.0000 |       0.0000 |       0.0000 |       0.0000 |       0.0000 |       0.0000 |
ld_text_base                            0x00400000 |   0x00400000 |   0x00400000 |   0x00400000 |   0x00400000 |   0x00400000 |   0x00400000 |   0x00400000 |   0x00400000 |   0x00400000 |   0x00400000 |   0x00400000 |   0x00400000 |   0x00400000 |   0x00400000 |   0x00400000 |   0x00400000 |   0x00400000 |   0x00400000 |   0x00400000 |   0x00400000 |   0x00400000 |   0x00400000 |   0x00400000 |   0x00400000 |   0x00400000 |   0x00400000 |   0x00400000 |   0x00400000 |   0x00400000 |   0x00400000 |   0x00400000 |   0x00400000 |   0x00400000 |   0x00400000 |   0x00400000 |   0x00400000 |   0x00400000 |   0x00400000 |   0x00400000 |   0x00400000 |   0x00400000 |   0x00400000 |   0x00400000 |
ld_text_size                                 87648 |        87648 |        87648 |        87648 |        87680 |        87680 |        87680 |        87680 |        87696 |        87696 |        87696 |        87696 |        87712 |        87712 |        87712 |        87712 |        87712 |        87712 |        87712 |        87712 |        87712 |        87712 |        87712 |        87712 |        87712 |        87712 |        87712 |        87712 |        87712 |        87712 |        87712 |        87712 |        87712 |        87712 |        87712 |        87712 |        87712 |        87712 |        87712 |        87712 |        87712 |        87712 |        87712 |        87712 |
ld_data_base                            0x10000000 |   0x10000000 |   0x10000000 |   0x10000000 |   0x10000000 |   0x10000000 |   0x10000000 |   0x10000000 |   0x10000000 |   0x10000000 |   0x10000000 |   0x10000000 |   0x10000000 |   0x10000000 |   0x10000000 |   0x10000000 |   0x10000000 |   0x10000000 |   0x10000000 |   0x10000000 |   0x10000000 |   0x10000000 |   0x10000000 |   0x10000000 |   0x10000000 |   0x10000000 |   0x10000000 |   0x10000000 |   0x10000000 |   0x10000000 |   0x10000000 |   0x10000000 |   0x10000000 |   0x10000000 |   0x10000000 |   0x10000000 |   0x10000000 |   0x10000000 |   0x10000000 |   0x10000000 |   0x10000000 |   0x10000000 |   0x10000000 |   0x10000000 |
ld_data_size                                  8192 |         8192 |         8192 |         8192 |         8192 |         8192 |         8192 |         8192 |         8192 |         8192 |         8192 |         8192 |         8192 |         8192 |         8192 |         8192 |         8192 |         8192 |         8192 |         8192 |         8192 |         8192 |         8192 |         8192 |         8192 |         8192 |         8192 |         8192 |         8192 |         8192 |         8192 |         8192 |         8192 |         8192 |         8192 |         8192 |         8192 |         8192 |         8192 |         8192 |         8192 |         8192 |         8192 |         8192 |
ld_stack_base                           0x7fffc000 |   0x7fffc000 |   0x7fffc000 |   0x7fffc000 |   0x7fffc000 |   0x7fffc000 |   0x7fffc000 |   0x7fffc000 |   0x7fffc000 |   0x7fffc000 |   0x7fffc000 |   0x7fffc000 |   0x7fffc000 |   0x7fffc000 |   0x7fffc000 |   0x7fffc000 |   0x7fffc000 |   0x7fffc000 |   0x7fffc000 |   0x7fffc000 |   0x7fffc000 |   0x7fffc000 |   0x7fffc000 |   0x7fffc000 |   0x7fffc000 |   0x7fffc000 |   0x7fffc000 |   0x7fffc000 |   0x7fffc000 |   0x7fffc000 |   0x7fffc000 |   0x7fffc000 |   0x7fffc000 |   0x7fffc000 |   0x7fffc000 |   0x7fffc000 |   0x7fffc000 |   0x7fffc000 |   0x7fffc000 |   0x7fffc000 |   0x7fffc000 |   0x7fffc000 |   0x7fffc000 |   0x7fffc000 |
ld_stack_size                                16384 |        16384 |        16384 |        16384 |        16384 |        16384 |        16384 |        16384 |        16384 |        16384 |        16384 |        16384 |        16384 |        16384 |        16384 |        16384 |        16384 |        16384 |        16384 |        16384 |        16384 |        16384 |        16384 |        16384 |        16384 |        16384 |        16384 |        16384 |        16384 |        16384 |        16384 |        16384 |        16384 |        16384 |        16384 |        16384 |        16384 |        16384 |        16384 |        16384 |        16384 |        16384 |        16384 |        16384 |
ld_prog_entry                           0x00400140 |   0x00400140 |   0x00400140 |   0x00400140 |   0x00400140 |   0x00400140 |   0x00400140 |   0x00400140 |   0x00400140 |   0x00400140 |   0x00400140 |   0x00400140 |   0x00400140 |   0x00400140 |   0x00400140 |   0x00400140 |   0x00400140 |   0x00400140 |   0x00400140 |   0x00400140 |   0x00400140 |   0x00400140 |   0x00400140 |   0x00400140 |   0x00400140 |   0x00400140 |   0x00400140 |   0x00400140 |   0x00400140 |   0x00400140 |   0x00400140 |   0x00400140 |   0x00400140 |   0x00400140 |   0x00400140 |   0x00400140 |   0x00400140 |   0x00400140 |   0x00400140 |   0x00400140 |   0x00400140 |   0x00400140 |   0x00400140 |   0x00400140 |
ld_environ_base                         0x7fff8000 |   0x7fff8000 |   0x7fff8000 |   0x7fff8000 |   0x7fff8000 |   0x7fff8000 |   0x7fff8000 |   0x7fff8000 |   0x7fff8000 |   0x7fff8000 |   0x7fff8000 |   0x7fff8000 |   0x7fff8000 |   0x7fff8000 |   0x7fff8000 |   0x7fff8000 |   0x7fff8000 |   0x7fff8000 |   0x7fff8000 |   0x7fff8000 |   0x7fff8000 |   0x7fff8000 |   0x7fff8000 |   0x7fff8000 |   0x7fff8000 |   0x7fff8000 |   0x7fff8000 |   0x7fff8000 |   0x7fff8000 |   0x7fff8000 |   0x7fff8000 |   0x7fff8000 |   0x7fff8000 |   0x7fff8000 |   0x7fff8000 |   0x7fff8000 |   0x7fff8000 |   0x7fff8000 |   0x7fff8000 |   0x7fff8000 |   0x7fff8000 |   0x7fff8000 |   0x7fff8000 |   0x7fff8000 |
ld_target_big_endian                             0 |            0 |            0 |            0 |            0 |            0 |            0 |            0 |            0 |            0 |            0 |            0 |            0 |            0 |            0 |            0 |            0 |            0 |            0 |            0 |            0 |            0 |            0 |            0 |            0 |            0 |            0 |            0 |            0 |            0 |            0 |            0 |            0 |            0 |            0 |            0 |            0 |            0 |            0 |            0 |            0 |            0 |            0 |            0 |
mem.page_count                                  38 |           38 |           38 |           38 |           46 |           46 |           46 |           46 |           62 |           62 |           62 |           62 |           94 |           94 |           94 |           94 |          158 |          158 |          158 |          158 |          286 |          286 |          286 |          286 |          542 |          542 |          542 |          542 |         1060 |         1060 |         1060 |         1060 |         2084 |         2084 |         2084 |         2084 |         4138 |         4138 |         4138 |         4138 |         8246 |         8246 |         8246 |         8246 |
mem.page_mem                                  152k |         152k |         152k |         152k |         184k |         184k |         184k |         184k |         248k |         248k |         248k |         248k |         376k |         376k |         376k |         376k |         632k |         632k |         632k |         632k |        1144k |        1144k |        1144k |        1144k |        2168k |        2168k |        2168k |        2168k |        4240k |        4240k |        4240k |        4240k |        8336k |        8336k |        8336k |        8336k |       16552k |       16552k |       16552k |       16552k |       32984k |       32984k |       32984k |       32984k |
mem.ptab_misses                                 38 |           38 |           38 |           38 |           46 |           46 |           46 |           46 |           62 |           62 |           62 |           62 |           94 |           94 |           94 |           94 |          158 |          158 |          158 |          158 |          286 |          286 |          286 |          286 |          542 |          542 |          542 |          542 |         1078 |         1078 |         1078 |         1078 |       100444 |       100444 |       100444 |       100444 |       102598 |       102598 |       102598 |       102598 |       115934 |       115934 |       115934 |       115934 |
mem.ptab_accesses                          4458666 |      4458666 |      4458666 |      4458666 |      8535080 |      8535080 |      8535080 |      8535080 |     18601110 |     18601110 |     18601110 |     18601110 |     37399782 |     37399782 |     37399782 |     37399782 |     82568554 |     82568554 |     82568554 |     82568554 |    167556526 |    167556526 |    167556526 |    167556526 |    367886870 |    367886870 |    367886870 |    367886870 |    769857652 |    769857652 |    769857652 |    769857652 |   1672113394 |   1672113394 |   1672113394 |   1672113394 |   3392225034 |   3392225034 |   3392225034 |   3392225034 |   7316761014 |   7316761014 |   7316761014 |   7316761014 |
mem.ptab_miss_rate                          0.0000 |       0.0000 |       0.0000 |       0.0000 |       0.0000 |       0.0000 |       0.0000 |       0.0000 |       0.0000 |       0.0000 |       0.0000 |       0.0000 |       0.0000 |       0.0000 |       0.0000 |       0.0000 |       0.0000 |       0.0000 |       0.0000 |       0.0000 |       0.0000 |       0.0000 |       0.0000 |       0.0000 |       0.0000 |       0.0000 |       0.0000 |       0.0000 |       0.0000 |       0.0000 |       0.0000 |       0.0000 |       0.0001 |       0.0001 |       0.0001 |       0.0001 |       0.0000 |       0.0000 |       0.0000 |       0.0000 |       0.0000 |       0.0000 |       0.0000 |       0.0000 |
-------------------------------------------------------------------------------------------------
sim-bpred                                     4096 |         4096 |         4096 |         4096 |         4096 |         4096 |         4096 |         8192 |         8192 |         8192 |         8192 |         8192 |         8192 |         8192 |        16384 |        16384 |        16384 |        16384 |        16384 |        16384 |        16384 |        32768 |        32768 |        32768 |        32768 |        32768 |        32768 |        32768 |        65536 |        65536 |        65536 |        65536 |        65536 |        65536 |        65536 |       131072 |       131072 |       131072 |       131072 |       131072 |       131072 |       131072 |       262144 |       262144 |       262144 |       262144 |       262144 |       262144 |       262144 |       524288 |       524288 |       524288 |       524288 |       524288 |       524288 |       524288 |      1048576 |      1048576 |      1048576 |      1048576 |      1048576 |      1048576 |      1048576 |      2097152 |      2097152 |      2097152 |      2097152 |      2097152 |      2097152 |      2097152 |      4194304 |      4194304 |      4194304 |      4194304 |      4194304 |      4194304 |      4194304 |
-bpred bimod -bpred:bimod 512
-bpred bimod -bpred:bimod 1024
-bpred bimod -bpred:bimod 2048
-bpred 2lev -bpred:2lev 1 512 10 1
-bpred 2lev -bpred:2lev 1 1024 10 1
-bpred 2lev -bpred:2lev 1 2048 10 1
-bpred 2lev -bpred:2lev 1 4096 10 1
-------------------------------------------------------------------------------------------------
sim_num_insn                                857110 |       857110 |       857110 |       857110 |       857110 |       857110 |       857110 |      1746584 |      1746584 |      1746584 |      1746584 |      1746584 |      1746584 |      1746584 |      3956783 |      3956783 |      3956783 |      3956783 |      3956783 |      3956783 |      3956783 |      8063560 |      8063560 |      8063560 |      8063560 |      8063560 |      8063560 |      8063560 |     17983370 |     17983370 |     17983370 |     17983370 |     17983370 |     17983370 |     17983370 |     36564923 |     36564923 |     36564923 |     36564923 |     36564923 |     36564923 |     36564923 |     80568288 |     80568288 |     80568288 |     80568288 |     80568288 |     80568288 |     80568288 |    168427067 |    168427067 |    168427067 |    168427067 |    168427067 |    168427067 |    168427067 |    366534971 |    366534971 |    366534971 |    366534971 |    366534971 |    366534971 |    366534971 |    742891934 |    742891934 |    742891934 |    742891934 |    742891934 |    742891934 |    742891934 |   1604741871 |   1604741871 |   1604741871 |   1604741871 |   1604741871 |   1604741871 |   1604741871 |
sim_num_refs                                228392 |       228392 |       228392 |       228392 |       228392 |       228392 |       228392 |       471171 |       471171 |       471171 |       471171 |       471171 |       471171 |       471171 |      1050972 |      1050972 |      1050972 |      1050972 |      1050972 |      1050972 |      1050972 |      2171170 |      2171170 |      2171170 |      2171170 |      2171170 |      2171170 |      2171170 |      4784864 |      4784864 |      4784864 |      4784864 |      4784864 |      4784864 |      4784864 |      9853600 |      9853600 |      9853600 |      9853600 |      9853600 |      9853600 |      9853600 |     21487754 |     21487754 |     21487754 |     21487754 |     21487754 |     21487754 |     21487754 |     45707011 |     45707011 |     45707011 |     45707011 |     45707011 |     45707011 |     45707011 |     98521922 |     98521922 |     98521922 |     98521922 |     98521922 |     98521922 |     98521922 |    201669512 |    201669512 |    201669512 |    201669512 |    201669512 |    201669512 |    201669512 |    431849020 |    431849020 |    431849020 |    431849020 |    431849020 |    431849020 |    431849020 |
sim_elapsed_time                                 1 |            1 |            1 |            1 |            1 |            1 |            1 |            1 |            1 |            1 |            1 |            1 |            1 |            1 |            1 |            1 |            1 |            1 |            1 |            1 |            1 |            1 |            1 |            1 |            1 |            1 |            1 |            1 |            2 |            2 |            2 |            2 |            2 |            2 |            2 |            5 |            4 |            4 |            4 |            5 |            4 |            4 |            9 |            9 |            9 |            9 |            9 |           10 |            9 |           20 |           19 |           19 |           20 |           20 |           19 |           20 |           42 |           42 |           42 |           42 |           43 |           42 |           42 |           85 |           85 |           85 |           86 |           86 |           86 |           86 |          181 |          183 |          181 |          185 |          185 |          183 |          183 |
sim_inst_rate                          857110.0000 |  857110.0000 |  857110.0000 |  857110.0000 |  857110.0000 |  857110.0000 |  857110.0000 | 1746584.0000 | 1746584.0000 | 1746584.0000 | 1746584.0000 | 1746584.0000 | 1746584.0000 | 1746584.0000 | 3956783.0000 | 3956783.0000 | 3956783.0000 | 3956783.0000 | 3956783.0000 | 3956783.0000 | 3956783.0000 | 8063560.0000 | 8063560.0000 | 8063560.0000 | 8063560.0000 | 8063560.0000 | 8063560.0000 | 8063560.0000 | 8991685.0000 | 8991685.0000 | 8991685.0000 | 8991685.0000 | 8991685.0000 | 8991685.0000 | 8991685.0000 | 7312984.6000 | 9141230.7500 | 9141230.7500 | 9141230.7500 | 7312984.6000 | 9141230.7500 | 9141230.7500 | 8952032.0000 | 8952032.0000 | 8952032.0000 | 8952032.0000 | 8952032.0000 | 8056828.8000 | 8952032.0000 | 8421353.3500 | 8864582.4737 | 8864582.4737 | 8421353.3500 | 8421353.3500 | 8864582.4737 | 8421353.3500 | 8727023.1190 | 8727023.1190 | 8727023.1190 | 8727023.1190 | 8524069.0930 | 8727023.1190 | 8727023.1190 | 8739905.1059 | 8739905.1059 | 8739905.1059 | 8638278.3023 | 8638278.3023 | 8638278.3023 | 8638278.3023 | 8865977.1878 | 8769081.2623 | 8865977.1878 | 8674280.3838 | 8674280.3838 | 8769081.2623 | 8769081.2623 |
sim_num_branches                            112538 |       112538 |       112538 |       112538 |       112538 |       112538 |       112538 |       235269 |       235269 |       235269 |       235269 |       235269 |       235269 |       235269 |       514378 |       514378 |       514378 |       514378 |       514378 |       514378 |       514378 |      1071879 |      1071879 |      1071879 |      1071879 |      1071879 |      1071879 |      1071879 |      2319674 |      2319674 |      2319674 |      2319674 |      2319674 |      2319674 |      2319674 |      4811326 |      4811326 |      4811326 |      4811326 |      4811326 |      4811326 |      4811326 |     10327626 |     10327626 |     10327626 |     10327626 |     10327626 |     10327626 |     10327626 |     21937301 |     21937301 |     21937301 |     21937301 |     21937301 |     21937301 |     21937301 |     46683652 |     46683652 |     46683652 |     46683652 |     46683652 |     46683652 |     46683652 |     96152112 |     96152112 |     96152112 |     96152112 |     96152112 |     96152112 |     96152112 |    203568653 |    203568653 |    203568653 |    203568653 |    203568653 |    203568653 |    203568653 |
sim_IPB                                     7.6162 |       7.6162 |       7.6162 |       7.6162 |       7.6162 |       7.6162 |       7.6162 |       7.4238 |       7.4238 |       7.4238 |       7.4238 |       7.4238 |       7.4238 |       7.4238 |       7.6924 |       7.6924 |       7.6924 |       7.6924 |       7.6924 |       7.6924 |       7.6924 |       7.5228 |       7.5228 |       7.5228 |       7.5228 |       7.5228 |       7.5228 |       7.5228 |       7.7525 |       7.7525 |       7.7525 |       7.7525 |       7.7525 |       7.7525 |       7.7525 |       7.5998 |       7.5998 |       7.5998 |       7.5998 |       7.5998 |       7.5998 |       7.5998 |       7.8012 |       7.8012 |       7.8012 |       7.8012 |       7.8012 |       7.8012 |       7.8012 |       7.6777 |       7.6777 |       7.6777 |       7.6777 |       7.6777 |       7.6777 |       7.6777 |       7.8515 |       7.8515 |       7.8515 |       7.8515 |       7.8515 |       7.8515 |       7.8515 |       7.7262 |       7.7262 |       7.7262 |       7.7262 |       7.7262 |       7.7262 |       7.7262 |       7.8831 |       7.8831 |       7.8831 |       7.8831 |       7.8831 |       7.8831 |       7.8831 |
bpred_bimod.lookups                         112538 |       112538 |       112538 |xxxxxxxxxxxxx |xxxxxxxxxxxxx |xxxxxxxxxxxxx |xxxxxxxxxxxxx |       235269 |       235269 |       235269 |xxxxxxxxxxxxx |xxxxxxxxxxxxx |xxxxxxxxxxxxx |xxxxxxxxxxxxx |       514378 |       514378 |       514378 |xxxxxxxxxxxxx |xxxxxxxxxxxxx |xxxxxxxxxxxxx |xxxxxxxxxxxxx |      1071879 |      1071879 |      1071879 |xxxxxxxxxxxxx |xxxxxxxxxxxxx |xxxxxxxxxxxxx |xxxxxxxxxxxxx |      2319674 |      2319674 |      2319674 |xxxxxxxxxxxxx |xxxxxxxxxxxxx |xxxxxxxxxxxxx |xxxxxxxxxxxxx |      4811326 |      4811326 |      4811326 |xxxxxxxxxxxxx |xxxxxxxxxxxxx |xxxxxxxxxxxxx |xxxxxxxxxxxxx |     10327626 |     10327626 |     10327626 |xxxxxxxxxxxxx |xxxxxxxxxxxxx |xxxxxxxxxxxxx |xxxxxxxxxxxxx |     21937301 |     21937301 |     21937301 |xxxxxxxxxxxxx |xxxxxxxxxxxxx |xxxxxxxxxxxxx |xxxxxxxxxxxxx |     46683652 |     46683652 |     46683652 |xxxxxxxxxxxxx |xxxxxxxxxxxxx |xxxxxxxxxxxxx |xxxxxxxxxxxxx |     96152112 |     96152112 |     96152112 |xxxxxxxxxxxxx |xxxxxxxxxxxxx |xxxxxxxxxxxxx |xxxxxxxxxxxxx |    203568653 |    203568653 |    203568653 |
bpred_bimod.updates                         112538 |       112538 |       112538 |xxxxxxxxxxxxx |xxxxxxxxxxxxx |xxxxxxxxxxxxx |xxxxxxxxxxxxx |       235269 |       235269 |       235269 |xxxxxxxxxxxxx |xxxxxxxxxxxxx |xxxxxxxxxxxxx |xxxxxxxxxxxxx |       514378 |       514378 |       514378 |xxxxxxxxxxxxx |xxxxxxxxxxxxx |xxxxxxxxxxxxx |xxxxxxxxxxxxx |      1071879 |      1071879 |      1071879 |xxxxxxxxxxxxx |xxxxxxxxxxxxx |xxxxxxxxxxxxx |xxxxxxxxxxxxx |      2319674 |      2319674 |      2319674 |xxxxxxxxxxxxx |xxxxxxxxxxxxx |xxxxxxxxxxxxx |xxxxxxxxxxxxx |      4811326 |      4811326 |      4811326 |xxxxxxxxxxxxx |xxxxxxxxxxxxx |xxxxxxxxxxxxx |xxxxxxxxxxxxx |     10327626 |     10327626 |     10327626 |xxxxxxxxxxxxx |xxxxxxxxxxxxx |xxxxxxxxxxxxx |xxxxxxxxxxxxx |     21937301 |     21937301 |     21937301 |xxxxxxxxxxxxx |xxxxxxxxxxxxx |xxxxxxxxxxxxx |xxxxxxxxxxxxx |     46683652 |     46683652 |     46683652 |xxxxxxxxxxxxx |xxxxxxxxxxxxx |xxxxxxxxxxxxx |xxxxxxxxxxxxx |     96152112 |     96152112 |     96152112 |xxxxxxxxxxxxx |xxxxxxxxxxxxx |xxxxxxxxxxxxx |xxxxxxxxxxxxx |    203568653 |    203568653 |    203568653 |
bpred_bimod.addr_hits                        86817 |        86823 |        86825 |xxxxxxxxxxxxx |xxxxxxxxxxxxx |xxxxxxxxxxxxx |xxxxxxxxxxxxx |       183319 |       183326 |       183325 |xxxxxxxxxxxxx |xxxxxxxxxxxxx |xxxxxxxxxxxxx |xxxxxxxxxxxxx |       395935 |       395961 |       395966 |xxxxxxxxxxxxx |xxxxxxxxxxxxx |xxxxxxxxxxxxx |xxxxxxxxxxxxx |       832783 |       832801 |       832803 |xxxxxxxxxxxxx |xxxxxxxxxxxxx |xxxxxxxxxxxxx |xxxxxxxxxxxxx |      1782545 |      1782628 |      1782631 |xxxxxxxxxxxxx |xxxxxxxxxxxxx |xxxxxxxxxxxxx |xxxxxxxxxxxxx |      3726106 |      3726156 |      3726157 |xxxxxxxxxxxxx |xxxxxxxxxxxxx |xxxxxxxxxxxxx |xxxxxxxxxxxxx |      7917469 |      7917730 |      7917733 |xxxxxxxxxxxxx |xxxxxxxxxxxxx |xxxxxxxxxxxxx |xxxxxxxxxxxxx |     17072726 |     17072891 |     17072893 |xxxxxxxxxxxxx |xxxxxxxxxxxxx |xxxxxxxxxxxxx |xxxxxxxxxxxxx |     35992754 |     35993798 |     35993798 |xxxxxxxxxxxxx |xxxxxxxxxxxxx |xxxxxxxxxxxxx |xxxxxxxxxxxxx |     74592138 |     74592769 |     74592774 |xxxxxxxxxxxxx |xxxxxxxxxxxxx |xxxxxxxxxxxxx |xxxxxxxxxxxxx |    156592445 |    156596648 |    156596648 |
bpred_bimod.dir_hits                         86969 |        86975 |        86977 |xxxxxxxxxxxxx |xxxxxxxxxxxxx |xxxxxxxxxxxxx |xxxxxxxxxxxxx |       183473 |       183482 |       183482 |xxxxxxxxxxxxx |xxxxxxxxxxxxx |xxxxxxxxxxxxx |xxxxxxxxxxxxx |       396093 |       396115 |       396120 |xxxxxxxxxxxxx |xxxxxxxxxxxxx |xxxxxxxxxxxxx |xxxxxxxxxxxxx |       832935 |       832953 |       832957 |xxxxxxxxxxxxx |xxxxxxxxxxxxx |xxxxxxxxxxxxx |xxxxxxxxxxxxx |      1782697 |      1782780 |      1782786 |xxxxxxxxxxxxx |xxxxxxxxxxxxx |xxxxxxxxxxxxx |xxxxxxxxxxxxx |      3726260 |      3726310 |      3726313 |xxxxxxxxxxxxx |xxxxxxxxxxxxx |xxxxxxxxxxxxx |xxxxxxxxxxxxx |      7917618 |      7917878 |      7917884 |xxxxxxxxxxxxx |xxxxxxxxxxxxx |xxxxxxxxxxxxx |xxxxxxxxxxxxx |     17072902 |     17073066 |     17073069 |xxxxxxxxxxxxx |xxxxxxxxxxxxx |xxxxxxxxxxxxx |xxxxxxxxxxxxx |     35992932 |     35993975 |     35993975 |xxxxxxxxxxxxx |xxxxxxxxxxxxx |xxxxxxxxxxxxx |xxxxxxxxxxxxx |     74592315 |     74592945 |     74592951 |xxxxxxxxxxxxx |xxxxxxxxxxxxx |xxxxxxxxxxxxx |xxxxxxxxxxxxx |    156592622 |    156596824 |    156596825 |
bpred_bimod.misses                           25569 |        25563 |        25561 |xxxxxxxxxxxxx |xxxxxxxxxxxxx |xxxxxxxxxxxxx |xxxxxxxxxxxxx |        51796 |        51787 |        51787 |xxxxxxxxxxxxx |xxxxxxxxxxxxx |xxxxxxxxxxxxx |xxxxxxxxxxxxx |       118285 |       118263 |       118258 |xxxxxxxxxxxxx |xxxxxxxxxxxxx |xxxxxxxxxxxxx |xxxxxxxxxxxxx |       238944 |       238926 |       238922 |xxxxxxxxxxxxx |xxxxxxxxxxxxx |xxxxxxxxxxxxx |xxxxxxxxxxxxx |       536977 |       536894 |       536888 |xxxxxxxxxxxxx |xxxxxxxxxxxxx |xxxxxxxxxxxxx |xxxxxxxxxxxxx |      1085066 |      1085016 |      1085013 |xxxxxxxxxxxxx |xxxxxxxxxxxxx |xxxxxxxxxxxxx |xxxxxxxxxxxxx |      2410008 |      2409748 |      2409742 |xxxxxxxxxxxxx |xxxxxxxxxxxxx |xxxxxxxxxxxxx |xxxxxxxxxxxxx |      4864399 |      4864235 |      4864232 |xxxxxxxxxxxxx |xxxxxxxxxxxxx |xxxxxxxxxxxxx |xxxxxxxxxxxxx |     10690720 |     10689677 |     10689677 |xxxxxxxxxxxxx |xxxxxxxxxxxxx |xxxxxxxxxxxxx |xxxxxxxxxxxxx |     21559797 |     21559167 |     21559161 |xxxxxxxxxxxxx |xxxxxxxxxxxxx |xxxxxxxxxxxxx |xxxxxxxxxxxxx |     46976031 |     46971829 |     46971828 |
bpred_bimod.jr_hits                             79 |           79 |           79 |xxxxxxxxxxxxx |xxxxxxxxxxxxx |xxxxxxxxxxxxx |xxxxxxxxxxxxx |           87 |           87 |           87 |xxxxxxxxxxxxx |xxxxxxxxxxxxx |xxxxxxxxxxxxx |xxxxxxxxxxxxx |          103 |          103 |          103 |xxxxxxxxxxxxx |xxxxxxxxxxxxx |xxxxxxxxxxxxx |xxxxxxxxxxxxx |          135 |          135 |          135 |xxxxxxxxxxxxx |xxxxxxxxxxxxx |xxxxxxxxxxxxx |xxxxxxxxxxxxx |          199 |          199 |          199 |xxxxxxxxxxxxx |xxxxxxxxxxxxx |xxxxxxxxxxxxx |xxxxxxxxxxxxx |          327 |          327 |          327 |xxxxxxxxxxxxx |xxxxxxxxxxxxx |xxxxxxxxxxxxx |xxxxxxxxxxxxx |          583 |          583 |          583 |xxxxxxxxxxxxx |xxxxxxxxxxxxx |xxxxxxxxxxxxx |xxxxxxxxxxxxx |         1100 |         1100 |         1100 |xxxxxxxxxxxxx |xxxxxxxxxxxxx |xxxxxxxxxxxxx |xxxxxxxxxxxxx |         2126 |         2126 |         2126 |xxxxxxxxxxxxx |xxxxxxxxxxxxx |xxxxxxxxxxxxx |xxxxxxxxxxxxx |         4178 |         4178 |         4178 |xxxxxxxxxxxxx |xxxxxxxxxxxxx |xxxxxxxxxxxxx |xxxxxxxxxxxxx |         8282 |         8282 |         8282 |
bpred_bimod.jr_seen                             80 |           80 |           80 |xxxxxxxxxxxxx |xxxxxxxxxxxxx |xxxxxxxxxxxxx |xxxxxxxxxxxxx |           88 |           88 |           88 |xxxxxxxxxxxxx |xxxxxxxxxxxxx |xxxxxxxxxxxxx |xxxxxxxxxxxxx |          104 |          104 |          104 |xxxxxxxxxxxxx |xxxxxxxxxxxxx |xxxxxxxxxxxxx |xxxxxxxxxxxxx |          136 |          136 |          136 |xxxxxxxxxxxxx |xxxxxxxxxxxxx |xxxxxxxxxxxxx |xxxxxxxxxxxxx |          200 |          200 |          200 |xxxxxxxxxxxxx |xxxxxxxxxxxxx |xxxxxxxxxxxxx |xxxxxxxxxxxxx |          328 |          328 |          328 |xxxxxxxxxxxxx |xxxxxxxxxxxxx |xxxxxxxxxxxxx |xxxxxxxxxxxxx |          584 |          584 |          584 |xxxxxxxxxxxxx |xxxxxxxxxxxxx |xxxxxxxxxxxxx |xxxxxxxxxxxxx |         1101 |         1101 |         1101 |xxxxxxxxxxxxx |xxxxxxxxxxxxx |xxxxxxxxxxxxx |xxxxxxxxxxxxx |         2127 |         2127 |         2127 |xxxxxxxxxxxxx |xxxxxxxxxxxxx |xxxxxxxxxxxxx |xxxxxxxxxxxxx |         4179 |         4179 |         4179 |xxxxxxxxxxxxx |xxxxxxxxxxxxx |xxxxxxxxxxxxx |xxxxxxxxxxxxx |         8283 |         8283 |         8283 |
bpred_bimod.jr_non_ras_hits.PP                   0 |            0 |            0 |xxxxxxxxxxxxx |xxxxxxxxxxxxx |xxxxxxxxxxxxx |xxxxxxxxxxxxx |            0 |            0 |            0 |xxxxxxxxxxxxx |xxxxxxxxxxxxx |xxxxxxxxxxxxx |xxxxxxxxxxxxx |            0 |            0 |            0 |xxxxxxxxxxxxx |xxxxxxxxxxxxx |xxxxxxxxxxxxx |xxxxxxxxxxxxx |            0 |            0 |            0 |xxxxxxxxxxxxx |xxxxxxxxxxxxx |xxxxxxxxxxxxx |xxxxxxxxxxxxx |            0 |            0 |            0 |xxxxxxxxxxxxx |xxxxxxxxxxxxx |xxxxxxxxxxxxx |xxxxxxxxxxxxx |            0 |            0 |            0 |xxxxxxxxxxxxx |xxxxxxxxxxxxx |xxxxxxxxxxxxx |xxxxxxxxxxxxx |            0 |            0 |            0 |xxxxxxxxxxxxx |xxxxxxxxxxxxx |xxxxxxxxxxxxx |xxxxxxxxxxxxx |            0 |            0 |            0 |xxxxxxxxxxxxx |xxxxxxxxxxxxx |xxxxxxxxxxxxx |xxxxxxxxxxxxx |            0 |            0 |            0 |xxxxxxxxxxxxx |xxxxxxxxxxxxx |xxxxxxxxxxxxx |xxxxxxxxxxxxx |            0 |            0 |            0 |xxxxxxxxxxxxx |xxxxxxxxxxxxx |xxxxxxxxxxxxx |xxxxxxxxxxxxx |            0 |            0 |            0 |
bpred_bimod.jr_non_ras_seen.PP                   0 |            0 |            0 |xxxxxxxxxxxxx |xxxxxxxxxxxxx |xxxxxxxxxxxxx |xxxxxxxxxxxxx |            0 |            0 |            0 |xxxxxxxxxxxxx |xxxxxxxxxxxxx |xxxxxxxxxxxxx |xxxxxxxxxxxxx |            0 |            0 |            0 |xxxxxxxxxxxxx |xxxxxxxxxxxxx |xxxxxxxxxxxxx |xxxxxxxxxxxxx |            0 |            0 |            0 |xxxxxxxxxxxxx |xxxxxxxxxxxxx |xxxxxxxxxxxxx |xxxxxxxxxxxxx |            0 |            0 |            0 |xxxxxxxxxxxxx |xxxxxxxxxxxxx |xxxxxxxxxxxxx |xxxxxxxxxxxxx |            0 |            0 |            0 |xxxxxxxxxxxxx |xxxxxxxxxxxxx |xxxxxxxxxxxxx |xxxxxxxxxxxxx |            0 |            0 |            0 |xxxxxxxxxxxxx |xxxxxxxxxxxxx |xxxxxxxxxxxxx |xxxxxxxxxxxxx |            1 |            1 |            1 |xxxxxxxxxxxxx |xxxxxxxxxxxxx |xxxxxxxxxxxxx |xxxxxxxxxxxxx |            1 |            1 |            1 |xxxxxxxxxxxxx |xxxxxxxxxxxxx |xxxxxxxxxxxxx |xxxxxxxxxxxxx |            1 |            1 |            1 |xxxxxxxxxxxxx |xxxxxxxxxxxxx |xxxxxxxxxxxxx |xxxxxxxxxxxxx |            1 |            1 |            1 |
bpred_bimod.bpred_addr_rate                 0.7714 |       0.7715 |       0.7715 |xxxxxxxxxxxxx |xxxxxxxxxxxxx |xxxxxxxxxxxxx |xxxxxxxxxxxxx |       0.7792 |       0.7792 |       0.7792 |xxxxxxxxxxxxx |xxxxxxxxxxxxx |xxxxxxxxxxxxx |xxxxxxxxxxxxx |       0.7697 |       0.7698 |       0.7698 |xxxxxxxxxxxxx |xxxxxxxxxxxxx |xxxxxxxxxxxxx |xxxxxxxxxxxxx |       0.7769 |       0.7770 |       0.7770 |xxxxxxxxxxxxx |xxxxxxxxxxxxx |xxxxxxxxxxxxx |xxxxxxxxxxxxx |       0.7684 |       0.7685 |       0.7685 |xxxxxxxxxxxxx |xxxxxxxxxxxxx |xxxxxxxxxxxxx |xxxxxxxxxxxxx |       0.7744 |       0.7745 |       0.7745 |xxxxxxxxxxxxx |xxxxxxxxxxxxx |xxxxxxxxxxxxx |xxxxxxxxxxxxx |       0.7666 |       0.7667 |       0.7667 |xxxxxxxxxxxxx |xxxxxxxxxxxxx |xxxxxxxxxxxxx |xxxxxxxxxxxxx |       0.7783 |       0.7783 |       0.7783 |xxxxxxxxxxxxx |xxxxxxxxxxxxx |xxxxxxxxxxxxx |xxxxxxxxxxxxx |       0.7710 |       0.7710 |       0.7710 |xxxxxxxxxxxxx |xxxxxxxxxxxxx |xxxxxxxxxxxxx |xxxxxxxxxxxxx |       0.7758 |       0.7758 |       0.7758 |xxxxxxxxxxxxx |xxxxxxxxxxxxx |xxxxxxxxxxxxx |xxxxxxxxxxxxx |       0.7692 |       0.7693 |       0.7693 |
bpred_bimod.bpred_dir_rate                  0.7728 |       0.7729 |       0.7729 |xxxxxxxxxxxxx |xxxxxxxxxxxxx |xxxxxxxxxxxxx |xxxxxxxxxxxxx |       0.7798 |       0.7799 |       0.7799 |xxxxxxxxxxxxx |xxxxxxxxxxxxx |xxxxxxxxxxxxx |xxxxxxxxxxxxx |       0.7700 |       0.7701 |       0.7701 |xxxxxxxxxxxxx |xxxxxxxxxxxxx |xxxxxxxxxxxxx |xxxxxxxxxxxxx |       0.7771 |       0.7771 |       0.7771 |xxxxxxxxxxxxx |xxxxxxxxxxxxx |xxxxxxxxxxxxx |xxxxxxxxxxxxx |       0.7685 |       0.7685 |       0.7686 |xxxxxxxxxxxxx |xxxxxxxxxxxxx |xxxxxxxxxxxxx |xxxxxxxxxxxxx |       0.7745 |       0.7745 |       0.7745 |xxxxxxxxxxxxx |xxxxxxxxxxxxx |xxxxxxxxxxxxx |xxxxxxxxxxxxx |       0.7666 |       0.7667 |       0.7667 |xxxxxxxxxxxxx |xxxxxxxxxxxxx |xxxxxxxxxxxxx |xxxxxxxxxxxxx |       0.7783 |       0.7783 |       0.7783 |xxxxxxxxxxxxx |xxxxxxxxxxxxx |xxxxxxxxxxxxx |xxxxxxxxxxxxx |       0.7710 |       0.7710 |       0.7710 |xxxxxxxxxxxxx |xxxxxxxxxxxxx |xxxxxxxxxxxxx |xxxxxxxxxxxxx |       0.7758 |       0.7758 |       0.7758 |xxxxxxxxxxxxx |xxxxxxxxxxxxx |xxxxxxxxxxxxx |xxxxxxxxxxxxx |       0.7692 |       0.7693 |       0.7693 |
bpred_bimod.bpred_jr_rate                   0.9875 |       0.9875 |       0.9875 |xxxxxxxxxxxxx |xxxxxxxxxxxxx |xxxxxxxxxxxxx |xxxxxxxxxxxxx |       0.9886 |       0.9886 |       0.9886 |xxxxxxxxxxxxx |xxxxxxxxxxxxx |xxxxxxxxxxxxx |xxxxxxxxxxxxx |       0.9904 |       0.9904 |       0.9904 |xxxxxxxxxxxxx |xxxxxxxxxxxxx |xxxxxxxxxxxxx |xxxxxxxxxxxxx |       0.9926 |       0.9926 |       0.9926 |xxxxxxxxxxxxx |xxxxxxxxxxxxx |xxxxxxxxxxxxx |xxxxxxxxxxxxx |       0.9950 |       0.9950 |       0.9950 |xxxxxxxxxxxxx |xxxxxxxxxxxxx |xxxxxxxxxxxxx |xxxxxxxxxxxxx |       0.9970 |       0.9970 |       0.9970 |xxxxxxxxxxxxx |xxxxxxxxxxxxx |xxxxxxxxxxxxx |xxxxxxxxxxxxx |       0.9983 |       0.9983 |       0.9983 |xxxxxxxxxxxxx |xxxxxxxxxxxxx |xxxxxxxxxxxxx |xxxxxxxxxxxxx |       0.9991 |       0.9991 |       0.9991 |xxxxxxxxxxxxx |xxxxxxxxxxxxx |xxxxxxxxxxxxx |xxxxxxxxxxxxx |       0.9995 |       0.9995 |       0.9995 |xxxxxxxxxxxxx |xxxxxxxxxxxxx |xxxxxxxxxxxxx |xxxxxxxxxxxxx |       0.9998 |       0.9998 |       0.9998 |xxxxxxxxxxxxx |xxxxxxxxxxxxx |xxxxxxxxxxxxx |xxxxxxxxxxxxx |       0.9999 |       0.9999 |       0.9999 |
bpred_bimod.bpred_jr_non_ras_rate.PP       <error: |      <error: |      <error: |xxxxxxxxxxxxx |xxxxxxxxxxxxx |xxxxxxxxxxxxx |xxxxxxxxxxxxx |      <error: |      <error: |      <error: |xxxxxxxxxxxxx |xxxxxxxxxxxxx |xxxxxxxxxxxxx |xxxxxxxxxxxxx |      <error: |      <error: |      <error: |xxxxxxxxxxxxx |xxxxxxxxxxxxx |xxxxxxxxxxxxx |xxxxxxxxxxxxx |      <error: |      <error: |      <error: |xxxxxxxxxxxxx |xxxxxxxxxxxxx |xxxxxxxxxxxxx |xxxxxxxxxxxxx |      <error: |      <error: |      <error: |xxxxxxxxxxxxx |xxxxxxxxxxxxx |xxxxxxxxxxxxx |xxxxxxxxxxxxx |      <error: |      <error: |      <error: |xxxxxxxxxxxxx |xxxxxxxxxxxxx |xxxxxxxxxxxxx |xxxxxxxxxxxxx |      <error: |      <error: |      <error: |xxxxxxxxxxxxx |xxxxxxxxxxxxx |xxxxxxxxxxxxx |xxxxxxxxxxxxx |       0.0000 |       0.0000 |       0.0000 |xxxxxxxxxxxxx |xxxxxxxxxxxxx |xxxxxxxxxxxxx |xxxxxxxxxxxxx |       0.0000 |       0.0000 |       0.0000 |xxxxxxxxxxxxx |xxxxxxxxxxxxx |xxxxxxxxxxxxx |xxxxxxxxxxxxx |       0.0000 |       0.0000 |       0.0000 |xxxxxxxxxxxxx |xxxxxxxxxxxxx |xxxxxxxxxxxxx |xxxxxxxxxxxxx |       0.0000 |       0.0000 |       0.0000 |
bpred_bimod.retstack_pushes                     82 |           82 |           82 |xxxxxxxxxxxxx |xxxxxxxxxxxxx |xxxxxxxxxxxxx |xxxxxxxxxxxxx |           90 |           90 |           90 |xxxxxxxxxxxxx |xxxxxxxxxxxxx |xxxxxxxxxxxxx |xxxxxxxxxxxxx |          106 |          106 |          106 |xxxxxxxxxxxxx |xxxxxxxxxxxxx |xxxxxxxxxxxxx |xxxxxxxxxxxxx |          138 |          138 |          138 |xxxxxxxxxxxxx |xxxxxxxxxxxxx |xxxxxxxxxxxxx |xxxxxxxxxxxxx |          202 |          202 |          202 |xxxxxxxxxxxxx |xxxxxxxxxxxxx |xxxxxxxxxxxxx |xxxxxxxxxxxxx |          330 |          330 |          330 |xxxxxxxxxxxxx |xxxxxxxxxxxxx |xxxxxxxxxxxxx |xxxxxxxxxxxxx |          586 |          586 |          586 |xxxxxxxxxxxxx |xxxxxxxxxxxxx |xxxxxxxxxxxxx |xxxxxxxxxxxxx |         1102 |         1102 |         1102 |xxxxxxxxxxxxx |xxxxxxxxxxxxx |xxxxxxxxxxxxx |xxxxxxxxxxxxx |         2128 |         2128 |         2128 |xxxxxxxxxxxxx |xxxxxxxxxxxxx |xxxxxxxxxxxxx |xxxxxxxxxxxxx |         4180 |         4180 |         4180 |xxxxxxxxxxxxx |xxxxxxxxxxxxx |xxxxxxxxxxxxx |xxxxxxxxxxxxx |         8284 |         8284 |         8284 |
bpred_bimod.retstack_pops                       80 |           80 |           80 |xxxxxxxxxxxxx |xxxxxxxxxxxxx |xxxxxxxxxxxxx |xxxxxxxxxxxxx |           88 |           88 |           88 |xxxxxxxxxxxxx |xxxxxxxxxxxxx |xxxxxxxxxxxxx |xxxxxxxxxxxxx |          104 |          104 |          104 |xxxxxxxxxxxxx |xxxxxxxxxxxxx |xxxxxxxxxxxxx |xxxxxxxxxxxxx |          136 |          136 |          136 |xxxxxxxxxxxxx |xxxxxxxxxxxxx |xxxxxxxxxxxxx |xxxxxxxxxxxxx |          200 |          200 |          200 |xxxxxxxxxxxxx |xxxxxxxxxxxxx |xxxxxxxxxxxxx |xxxxxxxxxxxxx |          328 |          328 |          328 |xxxxxxxxxxxxx |xxxxxxxxxxxxx |xxxxxxxxxxxxx |xxxxxxxxxxxxx |          584 |          584 |          584 |xxxxxxxxxxxxx |xxxxxxxxxxxxx |xxxxxxxxxxxxx |xxxxxxxxxxxxx |         1100 |         1100 |         1100 |xxxxxxxxxxxxx |xxxxxxxxxxxxx |xxxxxxxxxxxxx |xxxxxxxxxxxxx |         2126 |         2126 |         2126 |xxxxxxxxxxxxx |xxxxxxxxxxxxx |xxxxxxxxxxxxx |xxxxxxxxxxxxx |         4178 |         4178 |         4178 |xxxxxxxxxxxxx |xxxxxxxxxxxxx |xxxxxxxxxxxxx |xxxxxxxxxxxxx |         8282 |         8282 |         8282 |
bpred_bimod.used_ras.PP                         80 |           80 |           80 |xxxxxxxxxxxxx |xxxxxxxxxxxxx |xxxxxxxxxxxxx |xxxxxxxxxxxxx |           88 |           88 |           88 |xxxxxxxxxxxxx |xxxxxxxxxxxxx |xxxxxxxxxxxxx |xxxxxxxxxxxxx |          104 |          104 |          104 |xxxxxxxxxxxxx |xxxxxxxxxxxxx |xxxxxxxxxxxxx |xxxxxxxxxxxxx |          136 |          136 |          136 |xxxxxxxxxxxxx |xxxxxxxxxxxxx |xxxxxxxxxxxxx |xxxxxxxxxxxxx |          200 |          200 |          200 |xxxxxxxxxxxxx |xxxxxxxxxxxxx |xxxxxxxxxxxxx |xxxxxxxxxxxxx |          328 |          328 |          328 |xxxxxxxxxxxxx |xxxxxxxxxxxxx |xxxxxxxxxxxxx |xxxxxxxxxxxxx |          584 |          584 |          584 |xxxxxxxxxxxxx |xxxxxxxxxxxxx |xxxxxxxxxxxxx |xxxxxxxxxxxxx |         1100 |         1100 |         1100 |xxxxxxxxxxxxx |xxxxxxxxxxxxx |xxxxxxxxxxxxx |xxxxxxxxxxxxx |         2126 |         2126 |         2126 |xxxxxxxxxxxxx |xxxxxxxxxxxxx |xxxxxxxxxxxxx |xxxxxxxxxxxxx |         4178 |         4178 |         4178 |xxxxxxxxxxxxx |xxxxxxxxxxxxx |xxxxxxxxxxxxx |xxxxxxxxxxxxx |         8282 |         8282 |         8282 |
bpred_bimod.ras_hits.PP                         79 |           79 |           79 |xxxxxxxxxxxxx |xxxxxxxxxxxxx |xxxxxxxxxxxxx |xxxxxxxxxxxxx |           87 |           87 |           87 |xxxxxxxxxxxxx |xxxxxxxxxxxxx |xxxxxxxxxxxxx |xxxxxxxxxxxxx |          103 |          103 |          103 |xxxxxxxxxxxxx |xxxxxxxxxxxxx |xxxxxxxxxxxxx |xxxxxxxxxxxxx |          135 |          135 |          135 |xxxxxxxxxxxxx |xxxxxxxxxxxxx |xxxxxxxxxxxxx |xxxxxxxxxxxxx |          199 |          199 |          199 |xxxxxxxxxxxxx |xxxxxxxxxxxxx |xxxxxxxxxxxxx |xxxxxxxxxxxxx |          327 |          327 |          327 |xxxxxxxxxxxxx |xxxxxxxxxxxxx |xxxxxxxxxxxxx |xxxxxxxxxxxxx |          583 |          583 |          583 |xxxxxxxxxxxxx |xxxxxxxxxxxxx |xxxxxxxxxxxxx |xxxxxxxxxxxxx |         1100 |         1100 |         1100 |xxxxxxxxxxxxx |xxxxxxxxxxxxx |xxxxxxxxxxxxx |xxxxxxxxxxxxx |         2126 |         2126 |         2126 |xxxxxxxxxxxxx |xxxxxxxxxxxxx |xxxxxxxxxxxxx |xxxxxxxxxxxxx |         4178 |         4178 |         4178 |xxxxxxxxxxxxx |xxxxxxxxxxxxx |xxxxxxxxxxxxx |xxxxxxxxxxxxx |         8282 |         8282 |         8282 |
bpred_bimod.ras_rate.PP                     0.9875 |       0.9875 |       0.9875 |xxxxxxxxxxxxx |xxxxxxxxxxxxx |xxxxxxxxxxxxx |xxxxxxxxxxxxx |       0.9886 |       0.9886 |       0.9886 |xxxxxxxxxxxxx |xxxxxxxxxxxxx |xxxxxxxxxxxxx |xxxxxxxxxxxxx |       0.9904 |       0.9904 |       0.9904 |xxxxxxxxxxxxx |xxxxxxxxxxxxx |xxxxxxxxxxxxx |xxxxxxxxxxxxx |       0.9926 |       0.9926 |       0.9926 |xxxxxxxxxxxxx |xxxxxxxxxxxxx |xxxxxxxxxxxxx |xxxxxxxxxxxxx |       0.9950 |       0.9950 |       0.9950 |xxxxxxxxxxxxx |xxxxxxxxxxxxx |xxxxxxxxxxxxx |xxxxxxxxxxxxx |       0.9970 |       0.9970 |       0.9970 |xxxxxxxxxxxxx |xxxxxxxxxxxxx |xxxxxxxxxxxxx |xxxxxxxxxxxxx |       0.9983 |       0.9983 |       0.9983 |xxxxxxxxxxxxx |xxxxxxxxxxxxx |xxxxxxxxxxxxx |xxxxxxxxxxxxx |       1.0000 |       1.0000 |       1.0000 |xxxxxxxxxxxxx |xxxxxxxxxxxxx |xxxxxxxxxxxxx |xxxxxxxxxxxxx |       1.0000 |       1.0000 |       1.0000 |xxxxxxxxxxxxx |xxxxxxxxxxxxx |xxxxxxxxxxxxx |xxxxxxxxxxxxx |       1.0000 |       1.0000 |       1.0000 |xxxxxxxxxxxxx |xxxxxxxxxxxxx |xxxxxxxxxxxxx |xxxxxxxxxxxxx |       1.0000 |       1.0000 |       1.0000 |
bpred_2lev.lookups                   xxxxxxxxxxxxx |xxxxxxxxxxxxx |xxxxxxxxxxxxx |       112538 |       112538 |       112538 |       112538 |xxxxxxxxxxxxx |xxxxxxxxxxxxx |xxxxxxxxxxxxx |       235269 |       235269 |       235269 |       235269 |xxxxxxxxxxxxx |xxxxxxxxxxxxx |xxxxxxxxxxxxx |       514378 |       514378 |       514378 |       514378 |xxxxxxxxxxxxx |xxxxxxxxxxxxx |xxxxxxxxxxxxx |      1071879 |      1071879 |      1071879 |      1071879 |xxxxxxxxxxxxx |xxxxxxxxxxxxx |xxxxxxxxxxxxx |      2319674 |      2319674 |      2319674 |      2319674 |xxxxxxxxxxxxx |xxxxxxxxxxxxx |xxxxxxxxxxxxx |      4811326 |      4811326 |      4811326 |      4811326 |xxxxxxxxxxxxx |xxxxxxxxxxxxx |xxxxxxxxxxxxx |     10327626 |     10327626 |     10327626 |     10327626 |xxxxxxxxxxxxx |xxxxxxxxxxxxx |xxxxxxxxxxxxx |     21937301 |     21937301 |     21937301 |     21937301 |xxxxxxxxxxxxx |xxxxxxxxxxxxx |xxxxxxxxxxxxx |     46683652 |     46683652 |     46683652 |     46683652 |xxxxxxxxxxxxx |xxxxxxxxxxxxx |xxxxxxxxxxxxx |     96152112 |     96152112 |     96152112 |     96152112 |xxxxxxxxxxxxx |xxxxxxxxxxxxx |xxxxxxxxxxxxx |    203568653 |    203568653 |    203568653 |    203568653 |
[...]
bpred_2lev.retstack_pushes           xxxxxxxxxxxxx |xxxxxxxxxxxxx |xxxxxxxxxxxxx |           82 |           82 |           82 |           82 |xxxxxxxxxxxxx |xxxxxxxxxxxxx |xxxxxxxxxxxxx |           90 |           90 |           90 |           90 |xxxxxxxxxxxxx |xxxxxxxxxxxxx |xxxxxxxxxxxxx |          106 |          106 |          106 |          106 |xxxxxxxxxxxxx |xxxxxxxxxxxxx |xxxxxxxxxxxxx |          138 |          138 |          138 |          138 |xxxxxxxxxxxxx |xxxxxxxxxxxxx |xxxxxxxxxxxxx |          202 |          202 |          202 |          202 |xxxxxxxxxxxxx |xxxxxxxxxxxxx |xxxxxxxxxxxxx |          330 |          330 |          330 |          330 |xxxxxxxxxxxxx |xxxxxxxxxxxxx |xxxxxxxxxxxxx |          586 |          586 |          586 |          586 |xxxxxxxxxxxxx |xxxxxxxxxxxxx |xxxxxxxxxxxxx |         1102 |         1102 |         1102 |         1102 |xxxxxxxxxxxxx |xxxxxxxxxxxxx |xxxxxxxxxxxxx |         2128 |         2128 |         2128 |         2128 |xxxxxxxxxxxxx |xxxxxxxxxxxxx |xxxxxxxxxxxxx |         4180 |         4180 |         4180 |         4180 |xxxxxxxxxxxxx |xxxxxxxxxxxxx |xxxxxxxxxxxxx |         8284 |         8284 |         8284 |         8284 |
bpred_2lev.retstack_pops             xxxxxxxxxxxxx |xxxxxxxxxxxxx |xxxxxxxxxxxxx |           80 |           80 |           80 |           80 |xxxxxxxxxxxxx |xxxxxxxxxxxxx |xxxxxxxxxxxxx |           88 |           88 |           88 |           88 |xxxxxxxxxxxxx |xxxxxxxxxxxxx |xxxxxxxxxxxxx |          104 |          104 |          104 |          104 |xxxxxxxxxxxxx |xxxxxxxxxxxxx |xxxxxxxxxxxxx |          136 |          136 |          136 |          136 |xxxxxxxxxxxxx |xxxxxxxxxxxxx |xxxxxxxxxxxxx |          200 |          200 |          200 |          200 |xxxxxxxxxxxxx |xxxxxxxxxxxxx |xxxxxxxxxxxxx |          328 |          328 |          328 |          328 |xxxxxxxxxxxxx |xxxxxxxxxxxxx |xxxxxxxxxxxxx |          584 |          584 |          584 |          584 |xxxxxxxxxxxxx |xxxxxxxxxxxxx |xxxxxxxxxxxxx |         1100 |         1100 |         1100 |         1100 |xxxxxxxxxxxxx |xxxxxxxxxxxxx |xxxxxxxxxxxxx |         2126 |         2126 |         2126 |         2126 |xxxxxxxxxxxxx |xxxxxxxxxxxxx |xxxxxxxxxxxxx |         4178 |         4178 |         4178 |         4178 |xxxxxxxxxxxxx |xxxxxxxxxxxxx |xxxxxxxxxxxxx |         8282 |         8282 |         8282 |         8282 |
bpred_2lev.used_ras.PP               xxxxxxxxxxxxx |xxxxxxxxxxxxx |xxxxxxxxxxxxx |           80 |           80 |           80 |           80 |xxxxxxxxxxxxx |xxxxxxxxxxxxx |xxxxxxxxxxxxx |           88 |           88 |           88 |           88 |xxxxxxxxxxxxx |xxxxxxxxxxxxx |xxxxxxxxxxxxx |          104 |          104 |          104 |          104 |xxxxxxxxxxxxx |xxxxxxxxxxxxx |xxxxxxxxxxxxx |          136 |          136 |          136 |          136 |xxxxxxxxxxxxx |xxxxxxxxxxxxx |xxxxxxxxxxxxx |          200 |          200 |          200 |          200 |xxxxxxxxxxxxx |xxxxxxxxxxxxx |xxxxxxxxxxxxx |          328 |          328 |          328 |          328 |xxxxxxxxxxxxx |xxxxxxxxxxxxx |xxxxxxxxxxxxx |          584 |          584 |          584 |          584 |xxxxxxxxxxxxx |xxxxxxxxxxxxx |xxxxxxxxxxxxx |         1100 |         1100 |         1100 |         1100 |xxxxxxxxxxxxx |xxxxxxxxxxxxx |xxxxxxxxxxxxx |         2126 |         2126 |         2126 |         2126 |xxxxxxxxxxxxx |xxxxxxxxxxxxx |xxxxxxxxxxxxx |         4178 |         4178 |         4178 |         4178 |xxxxxxxxxxxxx |xxxxxxxxxxxxx |xxxxxxxxxxxxx |         8282 |         8282 |         8282 |         8282 |
bpred_2lev.ras_hits.PP               xxxxxxxxxxxxx |xxxxxxxxxxxxx |xxxxxxxxxxxxx |           79 |           79 |           79 |           79 |xxxxxxxxxxxxx |xxxxxxxxxxxxx |xxxxxxxxxxxxx |           87 |           87 |           87 |           87 |xxxxxxxxxxxxx |xxxxxxxxxxxxx |xxxxxxxxxxxxx |          103 |          103 |          103 |          103 |xxxxxxxxxxxxx |xxxxxxxxxxxxx |xxxxxxxxxxxxx |          135 |          135 |          135 |          135 |xxxxxxxxxxxxx |xxxxxxxxxxxxx |xxxxxxxxxxxxx |          199 |          199 |          199 |          199 |xxxxxxxxxxxxx |xxxxxxxxxxxxx |xxxxxxxxxxxxx |          327 |          327 |          327 |          327 |xxxxxxxxxxxxx |xxxxxxxxxxxxx |xxxxxxxxxxxxx |          583 |          583 |          583 |          583 |xxxxxxxxxxxxx |xxxxxxxxxxxxx |xxxxxxxxxxxxx |         1100 |         1100 |         1100 |         1100 |xxxxxxxxxxxxx |xxxxxxxxxxxxx |xxxxxxxxxxxxx |         2126 |         2126 |         2126 |         2126 |xxxxxxxxxxxxx |xxxxxxxxxxxxx |xxxxxxxxxxxxx |         4178 |         4178 |         4178 |         4178 |xxxxxxxxxxxxx |xxxxxxxxxxxxx |xxxxxxxxxxxxx |         8282 |         8282 |         8282 |         8282 |
bpred_2lev.ras_rate.PP               xxxxxxxxxxxxx |xxxxxxxxxxxxx |xxxxxxxxxxxxx |       0.9875 |       0.9875 |       0.9875 |       0.9875 |xxxxxxxxxxxxx |xxxxxxxxxxxxx |xxxxxxxxxxxxx |       0.9886 |       0.9886 |       0.9886 |       0.9886 |xxxxxxxxxxxxx |xxxxxxxxxxxxx |xxxxxxxxxxxxx |       0.9904 |       0.9904 |       0.9904 |       0.9904 |xxxxxxxxxxxxx |xxxxxxxxxxxxx |xxxxxxxxxxxxx |       0.9926 |       0.9926 |       0.9926 |       0.9926 |xxxxxxxxxxxxx |xxxxxxxxxxxxx |xxxxxxxxxxxxx |       0.9950 |       0.9950 |       0.9950 |       0.9950 |xxxxxxxxxxxxx |xxxxxxxxxxxxx |xxxxxxxxxxxxx |       0.9970 |       0.9970 |       0.9970 |       0.9970 |xxxxxxxxxxxxx |xxxxxxxxxxxxx |xxxxxxxxxxxxx |       0.9983 |       0.9983 |       0.9983 |       0.9983 |xxxxxxxxxxxxx |xxxxxxxxxxxxx |xxxxxxxxxxxxx |       1.0000 |       1.0000 |       1.0000 |       1.0000 |xxxxxxxxxxxxx |xxxxxxxxxxxxx |xxxxxxxxxxxxx |       1.0000 |       1.0000 |       1.0000 |       1.0000 |xxxxxxxxxxxxx |xxxxxxxxxxxxx |xxxxxxxxxxxxx |       1.0000 |       1.0000 |       1.0000 |       1.0000 |xxxxxxxxxxxxx |xxxxxxxxxxxxx |xxxxxxxxxxxxx |       1.0000 |       1.0000 |       1.0000 |       1.0000 |

Command list: 
	sslittle-na-sstrix-gcc -Wall -O3 -funroll-loops -finline-functions  -DRANDOM_SIZE=4096 -DOFFSET=5 -DSORT=tiled_mergesort sorts/tiled_mergesort132761090.c simpleMain.c -o tiled_mergesort437159108
	sim-cache -cache:dl1 dl1:256:32:1:l -cache:dl2 dl2:131072:32:1:l -cache:il1 il1:256:32:1:l -cache:il2 dl2 tiled_mergesort437159108
	sim-cache -cache:dl1 dl1:256:32:1:l -cache:dl2 dl2:65536:32:1:l -cache:il1 il1:256:32:1:l -cache:il2 dl2 tiled_mergesort437159108
	sim-cache -cache:dl1 dl1:1:32:256:l -cache:dl2 dl2:1:32:131072:l -cache:il1 il1:1:32:256:l -cache:il2 dl2 tiled_mergesort437159108
	sim-cache -cache:dl1 dl1:1:32:256:l -cache:dl2 dl2:1:32:65536:l -cache:il1 il1:1:32:256:l -cache:il2 dl2 tiled_mergesort437159108
	sim-bpred -bpred bimod -bpred:bimod 512 tiled_mergesort437159108
	sim-bpred -bpred bimod -bpred:bimod 1024 tiled_mergesort437159108
	sim-bpred -bpred bimod -bpred:bimod 2048 tiled_mergesort437159108
	sim-bpred -bpred 2lev -bpred:2lev 1 512 10 1 tiled_mergesort437159108
	sim-bpred -bpred 2lev -bpred:2lev 1 1024 10 1 tiled_mergesort437159108
	sim-bpred -bpred 2lev -bpred:2lev 1 2048 10 1 tiled_mergesort437159108
	sim-bpred -bpred 2lev -bpred:2lev 1 4096 10 1 tiled_mergesort437159108
	sslittle-na-sstrix-gcc -Wall -O3 -funroll-loops -finline-functions  -DRANDOM_SIZE=8192 -DOFFSET=5 -DSORT=tiled_mergesort sorts/tiled_mergesort132761090.c simpleMain.c -o tiled_mergesort437159108
	sim-cache -cache:dl1 dl1:256:32:1:l -cache:dl2 dl2:131072:32:1:l -cache:il1 il1:256:32:1:l -cache:il2 dl2 tiled_mergesort437159108
	sim-cache -cache:dl1 dl1:256:32:1:l -cache:dl2 dl2:65536:32:1:l -cache:il1 il1:256:32:1:l -cache:il2 dl2 tiled_mergesort437159108
	sim-cache -cache:dl1 dl1:1:32:256:l -cache:dl2 dl2:1:32:131072:l -cache:il1 il1:1:32:256:l -cache:il2 dl2 tiled_mergesort437159108
	sim-cache -cache:dl1 dl1:1:32:256:l -cache:dl2 dl2:1:32:65536:l -cache:il1 il1:1:32:256:l -cache:il2 dl2 tiled_mergesort437159108
	sim-bpred -bpred bimod -bpred:bimod 512 tiled_mergesort437159108
	sim-bpred -bpred bimod -bpred:bimod 1024 tiled_mergesort437159108
	sim-bpred -bpred bimod -bpred:bimod 2048 tiled_mergesort437159108
	sim-bpred -bpred 2lev -bpred:2lev 1 512 10 1 tiled_mergesort437159108
	sim-bpred -bpred 2lev -bpred:2lev 1 1024 10 1 tiled_mergesort437159108
	sim-bpred -bpred 2lev -bpred:2lev 1 2048 10 1 tiled_mergesort437159108
	sim-bpred -bpred 2lev -bpred:2lev 1 4096 10 1 tiled_mergesort437159108
	sslittle-na-sstrix-gcc -Wall -O3 -funroll-loops -finline-functions  -DRANDOM_SIZE=16384 -DOFFSET=5 -DSORT=tiled_mergesort sorts/tiled_mergesort132761090.c simpleMain.c -o tiled_mergesort437159108
	sim-cache -cache:dl1 dl1:256:32:1:l -cache:dl2 dl2:131072:32:1:l -cache:il1 il1:256:32:1:l -cache:il2 dl2 tiled_mergesort437159108
	sim-cache -cache:dl1 dl1:256:32:1:l -cache:dl2 dl2:65536:32:1:l -cache:il1 il1:256:32:1:l -cache:il2 dl2 tiled_mergesort437159108
	sim-cache -cache:dl1 dl1:1:32:256:l -cache:dl2 dl2:1:32:131072:l -cache:il1 il1:1:32:256:l -cache:il2 dl2 tiled_mergesort437159108
	sim-cache -cache:dl1 dl1:1:32:256:l -cache:dl2 dl2:1:32:65536:l -cache:il1 il1:1:32:256:l -cache:il2 dl2 tiled_mergesort437159108
	sim-bpred -bpred bimod -bpred:bimod 512 tiled_mergesort437159108
	sim-bpred -bpred bimod -bpred:bimod 1024 tiled_mergesort437159108
	sim-bpred -bpred bimod -bpred:bimod 2048 tiled_mergesort437159108
	sim-bpred -bpred 2lev -bpred:2lev 1 512 10 1 tiled_mergesort437159108
	sim-bpred -bpred 2lev -bpred:2lev 1 1024 10 1 tiled_mergesort437159108
	sim-bpred -bpred 2lev -bpred:2lev 1 2048 10 1 tiled_mergesort437159108
	sim-bpred -bpred 2lev -bpred:2lev 1 4096 10 1 tiled_mergesort437159108
	sslittle-na-sstrix-gcc -Wall -O3 -funroll-loops -finline-functions  -DRANDOM_SIZE=32768 -DOFFSET=5 -DSORT=tiled_mergesort sorts/tiled_mergesort132761090.c simpleMain.c -o tiled_mergesort437159108
	sim-cache -cache:dl1 dl1:256:32:1:l -cache:dl2 dl2:131072:32:1:l -cache:il1 il1:256:32:1:l -cache:il2 dl2 tiled_mergesort437159108
	sim-cache -cache:dl1 dl1:256:32:1:l -cache:dl2 dl2:65536:32:1:l -cache:il1 il1:256:32:1:l -cache:il2 dl2 tiled_mergesort437159108
	sim-cache -cache:dl1 dl1:1:32:256:l -cache:dl2 dl2:1:32:131072:l -cache:il1 il1:1:32:256:l -cache:il2 dl2 tiled_mergesort437159108
	sim-cache -cache:dl1 dl1:1:32:256:l -cache:dl2 dl2:1:32:65536:l -cache:il1 il1:1:32:256:l -cache:il2 dl2 tiled_mergesort437159108
	sim-bpred -bpred bimod -bpred:bimod 512 tiled_mergesort437159108
	sim-bpred -bpred bimod -bpred:bimod 1024 tiled_mergesort437159108
	sim-bpred -bpred bimod -bpred:bimod 2048 tiled_mergesort437159108
	sim-bpred -bpred 2lev -bpred:2lev 1 512 10 1 tiled_mergesort437159108
	sim-bpred -bpred 2lev -bpred:2lev 1 1024 10 1 tiled_mergesort437159108
	sim-bpred -bpred 2lev -bpred:2lev 1 2048 10 1 tiled_mergesort437159108
	sim-bpred -bpred 2lev -bpred:2lev 1 4096 10 1 tiled_mergesort437159108
	sslittle-na-sstrix-gcc -Wall -O3 -funroll-loops -finline-functions  -DRANDOM_SIZE=65536 -DOFFSET=5 -DSORT=tiled_mergesort sorts/tiled_mergesort132761090.c simpleMain.c -o tiled_mergesort437159108
	sim-cache -cache:dl1 dl1:256:32:1:l -cache:dl2 dl2:131072:32:1:l -cache:il1 il1:256:32:1:l -cache:il2 dl2 tiled_mergesort437159108
	sim-cache -cache:dl1 dl1:256:32:1:l -cache:dl2 dl2:65536:32:1:l -cache:il1 il1:256:32:1:l -cache:il2 dl2 tiled_mergesort437159108
	sim-cache -cache:dl1 dl1:1:32:256:l -cache:dl2 dl2:1:32:131072:l -cache:il1 il1:1:32:256:l -cache:il2 dl2 tiled_mergesort437159108
	sim-cache -cache:dl1 dl1:1:32:256:l -cache:dl2 dl2:1:32:65536:l -cache:il1 il1:1:32:256:l -cache:il2 dl2 tiled_mergesort437159108
	sim-bpred -bpred bimod -bpred:bimod 512 tiled_mergesort437159108
	sim-bpred -bpred bimod -bpred:bimod 1024 tiled_mergesort437159108
	sim-bpred -bpred bimod -bpred:bimod 2048 tiled_mergesort437159108
	sim-bpred -bpred 2lev -bpred:2lev 1 512 10 1 tiled_mergesort437159108
	sim-bpred -bpred 2lev -bpred:2lev 1 1024 10 1 tiled_mergesort437159108
	sim-bpred -bpred 2lev -bpred:2lev 1 2048 10 1 tiled_mergesort437159108
	sim-bpred -bpred 2lev -bpred:2lev 1 4096 10 1 tiled_mergesort437159108
	sslittle-na-sstrix-gcc -Wall -O3 -funroll-loops -finline-functions  -DRANDOM_SIZE=131072 -DOFFSET=5 -DSORT=tiled_mergesort sorts/tiled_mergesort132761090.c simpleMain.c -o tiled_mergesort437159108
	sim-cache -cache:dl1 dl1:256:32:1:l -cache:dl2 dl2:131072:32:1:l -cache:il1 il1:256:32:1:l -cache:il2 dl2 tiled_mergesort437159108
	sim-cache -cache:dl1 dl1:256:32:1:l -cache:dl2 dl2:65536:32:1:l -cache:il1 il1:256:32:1:l -cache:il2 dl2 tiled_mergesort437159108
	sim-cache -cache:dl1 dl1:1:32:256:l -cache:dl2 dl2:1:32:131072:l -cache:il1 il1:1:32:256:l -cache:il2 dl2 tiled_mergesort437159108
	sim-cache -cache:dl1 dl1:1:32:256:l -cache:dl2 dl2:1:32:65536:l -cache:il1 il1:1:32:256:l -cache:il2 dl2 tiled_mergesort437159108
	sim-bpred -bpred bimod -bpred:bimod 512 tiled_mergesort437159108
	sim-bpred -bpred bimod -bpred:bimod 1024 tiled_mergesort437159108
	sim-bpred -bpred bimod -bpred:bimod 2048 tiled_mergesort437159108
	sim-bpred -bpred 2lev -bpred:2lev 1 512 10 1 tiled_mergesort437159108
	sim-bpred -bpred 2lev -bpred:2lev 1 1024 10 1 tiled_mergesort437159108
	sim-bpred -bpred 2lev -bpred:2lev 1 2048 10 1 tiled_mergesort437159108
	sim-bpred -bpred 2lev -bpred:2lev 1 4096 10 1 tiled_mergesort437159108
	sslittle-na-sstrix-gcc -Wall -O3 -funroll-loops -finline-functions  -DRANDOM_SIZE=262144 -DOFFSET=5 -DSORT=tiled_mergesort sorts/tiled_mergesort132761090.c simpleMain.c -o tiled_mergesort437159108
	sim-cache -cache:dl1 dl1:256:32:1:l -cache:dl2 dl2:131072:32:1:l -cache:il1 il1:256:32:1:l -cache:il2 dl2 tiled_mergesort437159108
	sim-cache -cache:dl1 dl1:256:32:1:l -cache:dl2 dl2:65536:32:1:l -cache:il1 il1:256:32:1:l -cache:il2 dl2 tiled_mergesort437159108
	sim-cache -cache:dl1 dl1:1:32:256:l -cache:dl2 dl2:1:32:131072:l -cache:il1 il1:1:32:256:l -cache:il2 dl2 tiled_mergesort437159108
	sim-cache -cache:dl1 dl1:1:32:256:l -cache:dl2 dl2:1:32:65536:l -cache:il1 il1:1:32:256:l -cache:il2 dl2 tiled_mergesort437159108
	sim-bpred -bpred bimod -bpred:bimod 512 tiled_mergesort437159108
	sim-bpred -bpred bimod -bpred:bimod 1024 tiled_mergesort437159108
	sim-bpred -bpred bimod -bpred:bimod 2048 tiled_mergesort437159108
	sim-bpred -bpred 2lev -bpred:2lev 1 512 10 1 tiled_mergesort437159108
	sim-bpred -bpred 2lev -bpred:2lev 1 1024 10 1 tiled_mergesort437159108
	sim-bpred -bpred 2lev -bpred:2lev 1 2048 10 1 tiled_mergesort437159108
	sim-bpred -bpred 2lev -bpred:2lev 1 4096 10 1 tiled_mergesort437159108
	sslittle-na-sstrix-gcc -Wall -O3 -funroll-loops -finline-functions  -DRANDOM_SIZE=524288 -DOFFSET=5 -DSORT=tiled_mergesort sorts/tiled_mergesort132761090.c simpleMain.c -o tiled_mergesort437159108
	sim-cache -cache:dl1 dl1:256:32:1:l -cache:dl2 dl2:131072:32:1:l -cache:il1 il1:256:32:1:l -cache:il2 dl2 tiled_mergesort437159108
	sim-cache -cache:dl1 dl1:256:32:1:l -cache:dl2 dl2:65536:32:1:l -cache:il1 il1:256:32:1:l -cache:il2 dl2 tiled_mergesort437159108
	sim-cache -cache:dl1 dl1:1:32:256:l -cache:dl2 dl2:1:32:131072:l -cache:il1 il1:1:32:256:l -cache:il2 dl2 tiled_mergesort437159108
	sim-cache -cache:dl1 dl1:1:32:256:l -cache:dl2 dl2:1:32:65536:l -cache:il1 il1:1:32:256:l -cache:il2 dl2 tiled_mergesort437159108
	sim-bpred -bpred bimod -bpred:bimod 512 tiled_mergesort437159108
	sim-bpred -bpred bimod -bpred:bimod 1024 tiled_mergesort437159108
	sim-bpred -bpred bimod -bpred:bimod 2048 tiled_mergesort437159108
	sim-bpred -bpred 2lev -bpred:2lev 1 512 10 1 tiled_mergesort437159108
	sim-bpred -bpred 2lev -bpred:2lev 1 1024 10 1 tiled_mergesort437159108
	sim-bpred -bpred 2lev -bpred:2lev 1 2048 10 1 tiled_mergesort437159108
	sim-bpred -bpred 2lev -bpred:2lev 1 4096 10 1 tiled_mergesort437159108
	sslittle-na-sstrix-gcc -Wall -O3 -funroll-loops -finline-functions  -DRANDOM_SIZE=1048576 -DOFFSET=5 -DSORT=tiled_mergesort sorts/tiled_mergesort132761090.c simpleMain.c -o tiled_mergesort437159108
	sim-cache -cache:dl1 dl1:256:32:1:l -cache:dl2 dl2:131072:32:1:l -cache:il1 il1:256:32:1:l -cache:il2 dl2 tiled_mergesort437159108
	sim-cache -cache:dl1 dl1:256:32:1:l -cache:dl2 dl2:65536:32:1:l -cache:il1 il1:256:32:1:l -cache:il2 dl2 tiled_mergesort437159108
	sim-cache -cache:dl1 dl1:1:32:256:l -cache:dl2 dl2:1:32:131072:l -cache:il1 il1:1:32:256:l -cache:il2 dl2 tiled_mergesort437159108
	sim-cache -cache:dl1 dl1:1:32:256:l -cache:dl2 dl2:1:32:65536:l -cache:il1 il1:1:32:256:l -cache:il2 dl2 tiled_mergesort437159108
	sim-bpred -bpred bimod -bpred:bimod 512 tiled_mergesort437159108
	sim-bpred -bpred bimod -bpred:bimod 1024 tiled_mergesort437159108
	sim-bpred -bpred bimod -bpred:bimod 2048 tiled_mergesort437159108
	sim-bpred -bpred 2lev -bpred:2lev 1 512 10 1 tiled_mergesort437159108
	sim-bpred -bpred 2lev -bpred:2lev 1 1024 10 1 tiled_mergesort437159108
	sim-bpred -bpred 2lev -bpred:2lev 1 2048 10 1 tiled_mergesort437159108
	sim-bpred -bpred 2lev -bpred:2lev 1 4096 10 1 tiled_mergesort437159108
	sslittle-na-sstrix-gcc -Wall -O3 -funroll-loops -finline-functions  -DRANDOM_SIZE=2097152 -DOFFSET=5 -DSORT=tiled_mergesort sorts/tiled_mergesort132761090.c simpleMain.c -o tiled_mergesort437159108
	sim-cache -cache:dl1 dl1:256:32:1:l -cache:dl2 dl2:131072:32:1:l -cache:il1 il1:256:32:1:l -cache:il2 dl2 tiled_mergesort437159108
	sim-cache -cache:dl1 dl1:256:32:1:l -cache:dl2 dl2:65536:32:1:l -cache:il1 il1:256:32:1:l -cache:il2 dl2 tiled_mergesort437159108
	sim-cache -cache:dl1 dl1:1:32:256:l -cache:dl2 dl2:1:32:131072:l -cache:il1 il1:1:32:256:l -cache:il2 dl2 tiled_mergesort437159108
	sim-cache -cache:dl1 dl1:1:32:256:l -cache:dl2 dl2:1:32:65536:l -cache:il1 il1:1:32:256:l -cache:il2 dl2 tiled_mergesort437159108
	sim-bpred -bpred bimod -bpred:bimod 512 tiled_mergesort437159108
	sim-bpred -bpred bimod -bpred:bimod 1024 tiled_mergesort437159108
	sim-bpred -bpred bimod -bpred:bimod 2048 tiled_mergesort437159108
	sim-bpred -bpred 2lev -bpred:2lev 1 512 10 1 tiled_mergesort437159108
	sim-bpred -bpred 2lev -bpred:2lev 1 1024 10 1 tiled_mergesort437159108
	sim-bpred -bpred 2lev -bpred:2lev 1 2048 10 1 tiled_mergesort437159108
	sim-bpred -bpred 2lev -bpred:2lev 1 4096 10 1 tiled_mergesort437159108
	sslittle-na-sstrix-gcc -Wall -O3 -funroll-loops -finline-functions  -DRANDOM_SIZE=4194304 -DOFFSET=5 -DSORT=tiled_mergesort sorts/tiled_mergesort132761090.c simpleMain.c -o tiled_mergesort437159108
	sim-cache -cache:dl1 dl1:256:32:1:l -cache:dl2 dl2:131072:32:1:l -cache:il1 il1:256:32:1:l -cache:il2 dl2 tiled_mergesort437159108
	sim-cache -cache:dl1 dl1:256:32:1:l -cache:dl2 dl2:65536:32:1:l -cache:il1 il1:256:32:1:l -cache:il2 dl2 tiled_mergesort437159108
	sim-cache -cache:dl1 dl1:1:32:256:l -cache:dl2 dl2:1:32:131072:l -cache:il1 il1:1:32:256:l -cache:il2 dl2 tiled_mergesort437159108
	sim-cache -cache:dl1 dl1:1:32:256:l -cache:dl2 dl2:1:32:65536:l -cache:il1 il1:1:32:256:l -cache:il2 dl2 tiled_mergesort437159108
	sim-bpred -bpred bimod -bpred:bimod 512 tiled_mergesort437159108
	sim-bpred -bpred bimod -bpred:bimod 1024 tiled_mergesort437159108
	sim-bpred -bpred bimod -bpred:bimod 2048 tiled_mergesort437159108
	sim-bpred -bpred 2lev -bpred:2lev 1 512 10 1 tiled_mergesort437159108
	sim-bpred -bpred 2lev -bpred:2lev 1 1024 10 1 tiled_mergesort437159108
	sim-bpred -bpred 2lev -bpred:2lev 1 2048 10 1 tiled_mergesort437159108
	sim-bpred -bpred 2lev -bpred:2lev 1 4096 10 1 tiled_mergesort437159108
