Fri Aug  5 13:06:01 2005
Run as: "./do_simple -c random.org9 -o 9 tiled_mergesort"
-------------------------------------------------------------------------------------------------
sim-cache                                     4096 |         4096 |         4096 |         4096 |         8192 |         8192 |         8192 |         8192 |        16384 |        16384 |        16384 |        16384 |        32768 |        32768 |        32768 |        32768 |        65536 |        65536 |        65536 |        65536 |       131072 |       131072 |       131072 |       131072 |       262144 |       262144 |       262144 |       262144 |       524288 |       524288 |       524288 |       524288 |      1048576 |      1048576 |      1048576 |      1048576 |      2097152 |      2097152 |      2097152 |      2097152 |      4194304 |      4194304 |      4194304 |      4194304 |
-cache:dl1 dl1:256:32:1:l -cache:dl2 dl2:131072:32:1:l -cache:il1 il1:256:32:1:l -cache:il2 dl2
-cache:dl1 dl1:256:32:1:l -cache:dl2 dl2:65536:32:1:l -cache:il1 il1:256:32:1:l -cache:il2 dl2
-cache:dl1 dl1:1:32:256:l -cache:dl2 dl2:1:32:131072:l -cache:il1 il1:1:32:256:l -cache:il2 dl2
-cache:dl1 dl1:1:32:256:l -cache:dl2 dl2:1:32:65536:l -cache:il1 il1:1:32:256:l -cache:il2 dl2
-------------------------------------------------------------------------------------------------
sim_num_insn                                857882 |       857882 |       857882 |       857882 |      1750843 |      1750843 |      1750843 |      1750843 |      3962460 |      3962460 |      3962460 |      3962460 |      8068930 |      8068930 |      8068930 |      8068930 |     17987117 |     17987117 |     17987117 |     17987117 |     36574766 |     36574766 |     36574766 |     36574766 |     80563819 |     80563819 |     80563819 |     80563819 |    168440733 |    168440733 |    168440733 |    168440733 |    366538159 |    366538159 |    366538159 |    366538159 |    742922708 |    742922708 |    742922708 |    742922708 |   1604615328 |   1604615328 |   1604615328 |   1604615328 |
sim_num_refs                                228573 |       228573 |       228573 |       228573 |       472071 |       472071 |       472071 |       472071 |      1052236 |      1052236 |      1052236 |      1052236 |      2172198 |      2172198 |      2172198 |      2172198 |      4785822 |      4785822 |      4785822 |      4785822 |      9855696 |      9855696 |      9855696 |      9855696 |     21486840 |     21486840 |     21486840 |     21486840 |     45710048 |     45710048 |     45710048 |     45710048 |     98522679 |     98522679 |     98522679 |     98522679 |    201675362 |    201675362 |    201675362 |    201675362 |    431822065 |    431822065 |    431822065 |    431822065 |
sim_elapsed_time                                 1 |            1 |           10 |            5 |            1 |            1 |           16 |            9 |            1 |            1 |           27 |           13 |            2 |            2 |           48 |           25 |            5 |            5 |           95 |           48 |           10 |           10 |          162 |           75 |           22 |           22 |          278 |          109 |           46 |           46 |          388 |          134 |          100 |           99 |          450 |          194 |          201 |          200 |          553 |          303 |          433 |          435 |          818 |          558 |
sim_inst_rate                          857882.0000 |  857882.0000 |   85788.2000 |  171576.4000 | 1750843.0000 | 1750843.0000 |  109427.6875 |  194538.1111 | 3962460.0000 | 3962460.0000 |  146757.7778 |  304804.6154 | 4034465.0000 | 4034465.0000 |  168102.7083 |  322757.2000 | 3597423.4000 | 3597423.4000 |  189338.0737 |  374731.6042 | 3657476.6000 | 3657476.6000 |  225770.1605 |  487663.5467 | 3661991.7727 | 3661991.7727 |  289797.9101 |  739117.6055 | 3661755.0652 | 3661755.0652 |  434125.6005 | 1257020.3955 | 3665381.5900 | 3702405.6465 |  814529.2422 | 1889371.9536 | 3696132.8756 | 3714613.5400 | 1343440.7016 | 2451890.1254 | 3705809.0716 | 3688770.8690 | 1961632.4303 | 2875654.7097 |
il1.accesses                                857882 |       857882 |       857882 |       857882 |      1750843 |      1750843 |      1750843 |      1750843 |      3962460 |      3962460 |      3962460 |      3962460 |      8068930 |      8068930 |      8068930 |      8068930 |     17987117 |     17987117 |     17987117 |     17987117 |     36574766 |     36574766 |     36574766 |     36574766 |     80563819 |     80563819 |     80563819 |     80563819 |    168440733 |    168440733 |    168440733 |    168440733 |    366538159 |    366538159 |    366538159 |    366538159 |    742922708 |    742922708 |    742922708 |    742922708 |   1604615328 |   1604615328 |   1604615328 |   1604615328 |
il1.hits                                    857213 |       857213 |       857308 |       857308 |      1750153 |      1750153 |      1750245 |      1750245 |      3961785 |      3961785 |      3961886 |      3961886 |      8068238 |      8068238 |      8068331 |      8068331 |     17986443 |     17986443 |     17986539 |     17986539 |     36574074 |     36574074 |     36574167 |     36574167 |     80563147 |     80563147 |     80563243 |     80563243 |    168438454 |    168438454 |    168440060 |    168440060 |    366534354 |    366534354 |    366537504 |    366537504 |    742915785 |    742915785 |    742922035 |    742922035 |   1604602259 |   1604602259 |   1604614673 |   1604614673 |
il1.misses                                     669 |          669 |          574 |          574 |          690 |          690 |          598 |          598 |          675 |          675 |          574 |          574 |          692 |          692 |          599 |          599 |          674 |          674 |          578 |          578 |          692 |          692 |          599 |          599 |          672 |          672 |          576 |          576 |         2279 |         2279 |          673 |          673 |         3805 |         3805 |          655 |          655 |         6923 |         6923 |          673 |          673 |        13069 |        13069 |          655 |          655 |
il1.replacements                               426 |          426 |          318 |          318 |          446 |          446 |          342 |          342 |          434 |          434 |          318 |          318 |          448 |          448 |          343 |          343 |          432 |          432 |          322 |          322 |          448 |          448 |          343 |          343 |          443 |          443 |          320 |          320 |         2054 |         2054 |          417 |          417 |         3582 |         3582 |          399 |          399 |         6698 |         6698 |          417 |          417 |        12846 |        12846 |          399 |          399 |
il1.writebacks                                   0 |            0 |            0 |            0 |            0 |            0 |            0 |            0 |            0 |            0 |            0 |            0 |            0 |            0 |            0 |            0 |            0 |            0 |            0 |            0 |            0 |            0 |            0 |            0 |            0 |            0 |            0 |            0 |            0 |            0 |            0 |            0 |            0 |            0 |            0 |            0 |            0 |            0 |            0 |            0 |            0 |            0 |            0 |            0 |
il1.invalidations                                0 |            0 |            0 |            0 |            0 |            0 |            0 |            0 |            0 |            0 |            0 |            0 |            0 |            0 |            0 |            0 |            0 |            0 |            0 |            0 |            0 |            0 |            0 |            0 |            0 |            0 |            0 |            0 |            0 |            0 |            0 |            0 |            0 |            0 |            0 |            0 |            0 |            0 |            0 |            0 |            0 |            0 |            0 |            0 |
il1.miss_rate                               0.0008 |       0.0008 |       0.0007 |       0.0007 |       0.0004 |       0.0004 |       0.0003 |       0.0003 |       0.0002 |       0.0002 |       0.0001 |       0.0001 |       0.0001 |       0.0001 |       0.0001 |       0.0001 |       0.0000 |       0.0000 |       0.0000 |       0.0000 |       0.0000 |       0.0000 |       0.0000 |       0.0000 |       0.0000 |       0.0000 |       0.0000 |       0.0000 |       0.0000 |       0.0000 |       0.0000 |       0.0000 |       0.0000 |       0.0000 |       0.0000 |       0.0000 |       0.0000 |       0.0000 |       0.0000 |       0.0000 |       0.0000 |       0.0000 |       0.0000 |       0.0000 |
il1.repl_rate                               0.0005 |       0.0005 |       0.0004 |       0.0004 |       0.0003 |       0.0003 |       0.0002 |       0.0002 |       0.0001 |       0.0001 |       0.0001 |       0.0001 |       0.0001 |       0.0001 |       0.0000 |       0.0000 |       0.0000 |       0.0000 |       0.0000 |       0.0000 |       0.0000 |       0.0000 |       0.0000 |       0.0000 |       0.0000 |       0.0000 |       0.0000 |       0.0000 |       0.0000 |       0.0000 |       0.0000 |       0.0000 |       0.0000 |       0.0000 |       0.0000 |       0.0000 |       0.0000 |       0.0000 |       0.0000 |       0.0000 |       0.0000 |       0.0000 |       0.0000 |       0.0000 |
il1.wb_rate                                 0.0000 |       0.0000 |       0.0000 |       0.0000 |       0.0000 |       0.0000 |       0.0000 |       0.0000 |       0.0000 |       0.0000 |       0.0000 |       0.0000 |       0.0000 |       0.0000 |       0.0000 |       0.0000 |       0.0000 |       0.0000 |       0.0000 |       0.0000 |       0.0000 |       0.0000 |       0.0000 |       0.0000 |       0.0000 |       0.0000 |       0.0000 |       0.0000 |       0.0000 |       0.0000 |       0.0000 |       0.0000 |       0.0000 |       0.0000 |       0.0000 |       0.0000 |       0.0000 |       0.0000 |       0.0000 |       0.0000 |       0.0000 |       0.0000 |       0.0000 |       0.0000 |
il1.inv_rate                                0.0000 |       0.0000 |       0.0000 |       0.0000 |       0.0000 |       0.0000 |       0.0000 |       0.0000 |       0.0000 |       0.0000 |       0.0000 |       0.0000 |       0.0000 |       0.0000 |       0.0000 |       0.0000 |       0.0000 |       0.0000 |       0.0000 |       0.0000 |       0.0000 |       0.0000 |       0.0000 |       0.0000 |       0.0000 |       0.0000 |       0.0000 |       0.0000 |       0.0000 |       0.0000 |       0.0000 |       0.0000 |       0.0000 |       0.0000 |       0.0000 |       0.0000 |       0.0000 |       0.0000 |       0.0000 |       0.0000 |       0.0000 |       0.0000 |       0.0000 |       0.0000 |
dl1.accesses                                245039 |       245039 |       245039 |       245039 |       504921 |       504921 |       504921 |       504921 |      1117854 |      1117854 |      1117854 |      1117854 |      2303352 |      2303352 |      2303352 |      2303352 |      5048048 |      5048048 |      5048048 |      5048048 |     10380066 |     10380066 |     10380066 |     10380066 |     22535498 |     22535498 |     22535498 |     22535498 |     47807282 |     47807282 |     47807282 |     47807282 |    102717065 |    102717065 |    102717065 |    102717065 |    210064052 |    210064052 |    210064052 |    210064052 |    448599363 |    448599363 |    448599363 |    448599363 |
dl1.hits                                    217105 |       217105 |       238080 |       238080 |       455674 |       455674 |       490708 |       490708 |       999170 |       999170 |      1083257 |      1083257 |      2089361 |      2089361 |      2231568 |      2231568 |      4538687 |      4538687 |      4878352 |      4878352 |      9450558 |      9450558 |     10028703 |     10028703 |     20355500 |     20355500 |     21727353 |     21727353 |     43462824 |     43462824 |     46009143 |     46009143 |     92749546 |     92749546 |     98698468 |     98698468 |    191533946 |    191533946 |    201827624 |    201827624 |    406401833 |    406401833 |    430429905 |    430429905 |
dl1.misses                                   27934 |        27934 |         6959 |         6959 |        49247 |        49247 |        14213 |        14213 |       118684 |       118684 |        34597 |        34597 |       213991 |       213991 |        71784 |        71784 |       509361 |       509361 |       169696 |       169696 |       929508 |       929508 |       351363 |       351363 |      2179998 |      2179998 |       808145 |       808145 |      4344458 |      4344458 |      1798139 |      1798139 |      9967519 |      9967519 |      4018597 |      4018597 |     18530106 |     18530106 |      8236428 |      8236428 |     42197530 |     42197530 |     18169458 |     18169458 |
dl1.replacements                             27678 |        27678 |         6703 |         6703 |        48991 |        48991 |        13957 |        13957 |       118428 |       118428 |        34341 |        34341 |       213735 |       213735 |        71528 |        71528 |       509105 |       509105 |       169440 |       169440 |       929252 |       929252 |       351107 |       351107 |      2179742 |      2179742 |       807889 |       807889 |      4344202 |      4344202 |      1797883 |      1797883 |      9967263 |      9967263 |      4018341 |      4018341 |     18529850 |     18529850 |      8236172 |      8236172 |     42197274 |     42197274 |     18169202 |     18169202 |
dl1.writebacks                               14997 |        14997 |         5064 |         5064 |        26775 |        26775 |         9787 |         9787 |        63379 |        63379 |        23380 |        23380 |       115276 |       115276 |        46379 |        46379 |       270116 |       270116 |       108987 |       108987 |       496214 |       496214 |       217399 |       217399 |      1148427 |      1148427 |       500424 |       500424 |      2289009 |      2289009 |      1065951 |      1065951 |      5199819 |      5199819 |      2394653 |      2394653 |      9705387 |      9705387 |      4785261 |      4785261 |     21905217 |     21905217 |     10626846 |     10626846 |
dl1.invalidations                                0 |            0 |            0 |            0 |            0 |            0 |            0 |            0 |            0 |            0 |            0 |            0 |            0 |            0 |            0 |            0 |            0 |            0 |            0 |            0 |            0 |            0 |            0 |            0 |            0 |            0 |            0 |            0 |            0 |            0 |            0 |            0 |            0 |            0 |            0 |            0 |            0 |            0 |            0 |            0 |            0 |            0 |            0 |            0 |
dl1.miss_rate                               0.1140 |       0.1140 |       0.0284 |       0.0284 |       0.0975 |       0.0975 |       0.0281 |       0.0281 |       0.1062 |       0.1062 |       0.0309 |       0.0309 |       0.0929 |       0.0929 |       0.0312 |       0.0312 |       0.1009 |       0.1009 |       0.0336 |       0.0336 |       0.0895 |       0.0895 |       0.0338 |       0.0338 |       0.0967 |       0.0967 |       0.0359 |       0.0359 |       0.0909 |       0.0909 |       0.0376 |       0.0376 |       0.0970 |       0.0970 |       0.0391 |       0.0391 |       0.0882 |       0.0882 |       0.0392 |       0.0392 |       0.0941 |       0.0941 |       0.0405 |       0.0405 |
dl1.repl_rate                               0.1130 |       0.1130 |       0.0274 |       0.0274 |       0.0970 |       0.0970 |       0.0276 |       0.0276 |       0.1059 |       0.1059 |       0.0307 |       0.0307 |       0.0928 |       0.0928 |       0.0311 |       0.0311 |       0.1009 |       0.1009 |       0.0336 |       0.0336 |       0.0895 |       0.0895 |       0.0338 |       0.0338 |       0.0967 |       0.0967 |       0.0358 |       0.0358 |       0.0909 |       0.0909 |       0.0376 |       0.0376 |       0.0970 |       0.0970 |       0.0391 |       0.0391 |       0.0882 |       0.0882 |       0.0392 |       0.0392 |       0.0941 |       0.0941 |       0.0405 |       0.0405 |
dl1.wb_rate                                 0.0612 |       0.0612 |       0.0207 |       0.0207 |       0.0530 |       0.0530 |       0.0194 |       0.0194 |       0.0567 |       0.0567 |       0.0209 |       0.0209 |       0.0500 |       0.0500 |       0.0201 |       0.0201 |       0.0535 |       0.0535 |       0.0216 |       0.0216 |       0.0478 |       0.0478 |       0.0209 |       0.0209 |       0.0510 |       0.0510 |       0.0222 |       0.0222 |       0.0479 |       0.0479 |       0.0223 |       0.0223 |       0.0506 |       0.0506 |       0.0233 |       0.0233 |       0.0462 |       0.0462 |       0.0228 |       0.0228 |       0.0488 |       0.0488 |       0.0237 |       0.0237 |
dl1.inv_rate                                0.0000 |       0.0000 |       0.0000 |       0.0000 |       0.0000 |       0.0000 |       0.0000 |       0.0000 |       0.0000 |       0.0000 |       0.0000 |       0.0000 |       0.0000 |       0.0000 |       0.0000 |       0.0000 |       0.0000 |       0.0000 |       0.0000 |       0.0000 |       0.0000 |       0.0000 |       0.0000 |       0.0000 |       0.0000 |       0.0000 |       0.0000 |       0.0000 |       0.0000 |       0.0000 |       0.0000 |       0.0000 |       0.0000 |       0.0000 |       0.0000 |       0.0000 |       0.0000 |       0.0000 |       0.0000 |       0.0000 |       0.0000 |       0.0000 |       0.0000 |       0.0000 |
dl2.accesses                                 43600 |        43600 |        12597 |        12597 |        76712 |        76712 |        24598 |        24598 |       182738 |       182738 |        58551 |        58551 |       329959 |       329959 |       118762 |       118762 |       780151 |       780151 |       279261 |       279261 |      1426414 |      1426414 |       569361 |       569361 |      3329097 |      3329097 |      1309145 |      1309145 |      6635746 |      6635746 |      2864763 |      2864763 |     15171143 |     15171143 |      6413905 |      6413905 |     28242416 |     28242416 |     13022362 |     13022362 |     64115816 |     64115816 |     28796959 |     28796959 |
dl2.hits                                     41624 |        41624 |        10639 |        10639 |        73692 |        73692 |        21597 |        21597 |       177690 |       177690 |        53521 |        53521 |       320794 |       320794 |       109615 |       109615 |       762811 |       762811 |       261939 |       261939 |      1392673 |      1392673 |       535639 |       535639 |      3262593 |      3262487 |      1242674 |      1206016 |      6393594 |      6228174 |      2697486 |      2343105 |     14196097 |     13989100 |      5232442 |      5110944 |     25377217 |     25354945 |     10136103 |      9894456 |     57294045 |     57292756 |     21976991 |     21493959 |
dl2.misses                                    1976 |         1976 |         1958 |         1958 |         3020 |         3020 |         3001 |         3001 |         5048 |         5048 |         5030 |         5030 |         9165 |         9165 |         9147 |         9147 |        17340 |        17340 |        17322 |        17322 |        33741 |        33741 |        33722 |        33722 |        66504 |        66610 |        66471 |       103129 |       242152 |       407572 |       167277 |       521658 |       975046 |      1182043 |      1181463 |      1302961 |      2865199 |      2887471 |      2886259 |      3127906 |      6821771 |      6823060 |      6819968 |      7303000 |
dl2.replacements                               165 |          165 |            0 |            0 |          184 |          184 |            0 |            0 |          166 |          166 |            0 |            0 |          184 |          184 |            0 |            0 |          168 |          168 |            0 |            0 |          184 |          184 |            0 |            0 |          192 |         1074 |            0 |        37593 |       142436 |       342036 |        36205 |       456122 |       843974 |      1116507 |      1050391 |      1237425 |      2734127 |      2821935 |      2755187 |      3062370 |      6690699 |      6757524 |      6688896 |      7237464 |
dl2.writebacks                                 114 |          114 |            0 |            0 |          131 |          131 |            0 |            0 |          114 |          114 |            0 |            0 |          131 |          131 |            0 |            0 |          115 |          115 |            0 |            0 |          131 |          131 |            0 |            0 |          136 |          698 |            0 |        37166 |        98608 |       264990 |        35739 |       357076 |       723085 |       755277 |       722136 |       876173 |      1804740 |      1804888 |      1771483 |      2045540 |      4165942 |      4166307 |      4132322 |      4647451 |
dl2.invalidations                                0 |            0 |            0 |            0 |            0 |            0 |            0 |            0 |            0 |            0 |            0 |            0 |            0 |            0 |            0 |            0 |            0 |            0 |            0 |            0 |            0 |            0 |            0 |            0 |            0 |            0 |            0 |            0 |            0 |            0 |            0 |            0 |            0 |            0 |            0 |            0 |            0 |            0 |            0 |            0 |            0 |            0 |            0 |            0 |
dl2.miss_rate                               0.0453 |       0.0453 |       0.1554 |       0.1554 |       0.0394 |       0.0394 |       0.1220 |       0.1220 |       0.0276 |       0.0276 |       0.0859 |       0.0859 |       0.0278 |       0.0278 |       0.0770 |       0.0770 |       0.0222 |       0.0222 |       0.0620 |       0.0620 |       0.0237 |       0.0237 |       0.0592 |       0.0592 |       0.0200 |       0.0200 |       0.0508 |       0.0788 |       0.0365 |       0.0614 |       0.0584 |       0.1821 |       0.0643 |       0.0779 |       0.1842 |       0.2031 |       0.1015 |       0.1022 |       0.2216 |       0.2402 |       0.1064 |       0.1064 |       0.2368 |       0.2536 |
dl2.repl_rate                               0.0038 |       0.0038 |       0.0000 |       0.0000 |       0.0024 |       0.0024 |       0.0000 |       0.0000 |       0.0009 |       0.0009 |       0.0000 |       0.0000 |       0.0006 |       0.0006 |       0.0000 |       0.0000 |       0.0002 |       0.0002 |       0.0000 |       0.0000 |       0.0001 |       0.0001 |       0.0000 |       0.0000 |       0.0001 |       0.0003 |       0.0000 |       0.0287 |       0.0215 |       0.0515 |       0.0126 |       0.1592 |       0.0556 |       0.0736 |       0.1638 |       0.1929 |       0.0968 |       0.0999 |       0.2116 |       0.2352 |       0.1044 |       0.1054 |       0.2323 |       0.2513 |
dl2.wb_rate                                 0.0026 |       0.0026 |       0.0000 |       0.0000 |       0.0017 |       0.0017 |       0.0000 |       0.0000 |       0.0006 |       0.0006 |       0.0000 |       0.0000 |       0.0004 |       0.0004 |       0.0000 |       0.0000 |       0.0001 |       0.0001 |       0.0000 |       0.0000 |       0.0001 |       0.0001 |       0.0000 |       0.0000 |       0.0000 |       0.0002 |       0.0000 |       0.0284 |       0.0149 |       0.0399 |       0.0125 |       0.1246 |       0.0477 |       0.0498 |       0.1126 |       0.1366 |       0.0639 |       0.0639 |       0.1360 |       0.1571 |       0.0650 |       0.0650 |       0.1435 |       0.1614 |
dl2.inv_rate                                0.0000 |       0.0000 |       0.0000 |       0.0000 |       0.0000 |       0.0000 |       0.0000 |       0.0000 |       0.0000 |       0.0000 |       0.0000 |       0.0000 |       0.0000 |       0.0000 |       0.0000 |       0.0000 |       0.0000 |       0.0000 |       0.0000 |       0.0000 |       0.0000 |       0.0000 |       0.0000 |       0.0000 |       0.0000 |       0.0000 |       0.0000 |       0.0000 |       0.0000 |       0.0000 |       0.0000 |       0.0000 |       0.0000 |       0.0000 |       0.0000 |       0.0000 |       0.0000 |       0.0000 |       0.0000 |       0.0000 |       0.0000 |       0.0000 |       0.0000 |       0.0000 |
itlb.accesses                               857882 |       857882 |       857882 |       857882 |      1750843 |      1750843 |      1750843 |      1750843 |      3962460 |      3962460 |      3962460 |      3962460 |      8068930 |      8068930 |      8068930 |      8068930 |     17987117 |     17987117 |     17987117 |     17987117 |     36574766 |     36574766 |     36574766 |     36574766 |     80563819 |     80563819 |     80563819 |     80563819 |    168440733 |    168440733 |    168440733 |    168440733 |    366538159 |    366538159 |    366538159 |    366538159 |    742922708 |    742922708 |    742922708 |    742922708 |   1604615328 |   1604615328 |   1604615328 |   1604615328 |
itlb.hits                                   857870 |       857870 |       857870 |       857870 |      1750831 |      1750831 |      1750831 |      1750831 |      3962448 |      3962448 |      3962448 |      3962448 |      8068918 |      8068918 |      8068918 |      8068918 |     17987105 |     17987105 |     17987105 |     17987105 |     36574754 |     36574754 |     36574754 |     36574754 |     80563807 |     80563807 |     80563807 |     80563807 |    168440721 |    168440721 |    168440721 |    168440721 |    366538147 |    366538147 |    366538147 |    366538147 |    742922696 |    742922696 |    742922696 |    742922696 |   1604615316 |   1604615316 |   1604615316 |   1604615316 |
itlb.misses                                     12 |           12 |           12 |           12 |           12 |           12 |           12 |           12 |           12 |           12 |           12 |           12 |           12 |           12 |           12 |           12 |           12 |           12 |           12 |           12 |           12 |           12 |           12 |           12 |           12 |           12 |           12 |           12 |           12 |           12 |           12 |           12 |           12 |           12 |           12 |           12 |           12 |           12 |           12 |           12 |           12 |           12 |           12 |           12 |
itlb.replacements                                0 |            0 |            0 |            0 |            0 |            0 |            0 |            0 |            0 |            0 |            0 |            0 |            0 |            0 |            0 |            0 |            0 |            0 |            0 |            0 |            0 |            0 |            0 |            0 |            0 |            0 |            0 |            0 |            0 |            0 |            0 |            0 |            0 |            0 |            0 |            0 |            0 |            0 |            0 |            0 |            0 |            0 |            0 |            0 |
itlb.writebacks                                  0 |            0 |            0 |            0 |            0 |            0 |            0 |            0 |            0 |            0 |            0 |            0 |            0 |            0 |            0 |            0 |            0 |            0 |            0 |            0 |            0 |            0 |            0 |            0 |            0 |            0 |            0 |            0 |            0 |            0 |            0 |            0 |            0 |            0 |            0 |            0 |            0 |            0 |            0 |            0 |            0 |            0 |            0 |            0 |
itlb.invalidations                               0 |            0 |            0 |            0 |            0 |            0 |            0 |            0 |            0 |            0 |            0 |            0 |            0 |            0 |            0 |            0 |            0 |            0 |            0 |            0 |            0 |            0 |            0 |            0 |            0 |            0 |            0 |            0 |            0 |            0 |            0 |            0 |            0 |            0 |            0 |            0 |            0 |            0 |            0 |            0 |            0 |            0 |            0 |            0 |
itlb.miss_rate                              0.0000 |       0.0000 |       0.0000 |       0.0000 |       0.0000 |       0.0000 |       0.0000 |       0.0000 |       0.0000 |       0.0000 |       0.0000 |       0.0000 |       0.0000 |       0.0000 |       0.0000 |       0.0000 |       0.0000 |       0.0000 |       0.0000 |       0.0000 |       0.0000 |       0.0000 |       0.0000 |       0.0000 |       0.0000 |       0.0000 |       0.0000 |       0.0000 |       0.0000 |       0.0000 |       0.0000 |       0.0000 |       0.0000 |       0.0000 |       0.0000 |       0.0000 |       0.0000 |       0.0000 |       0.0000 |       0.0000 |       0.0000 |       0.0000 |       0.0000 |       0.0000 |
itlb.repl_rate                              0.0000 |       0.0000 |       0.0000 |       0.0000 |       0.0000 |       0.0000 |       0.0000 |       0.0000 |       0.0000 |       0.0000 |       0.0000 |       0.0000 |       0.0000 |       0.0000 |       0.0000 |       0.0000 |       0.0000 |       0.0000 |       0.0000 |       0.0000 |       0.0000 |       0.0000 |       0.0000 |       0.0000 |       0.0000 |       0.0000 |       0.0000 |       0.0000 |       0.0000 |       0.0000 |       0.0000 |       0.0000 |       0.0000 |       0.0000 |       0.0000 |       0.0000 |       0.0000 |       0.0000 |       0.0000 |       0.0000 |       0.0000 |       0.0000 |       0.0000 |       0.0000 |
itlb.wb_rate                                0.0000 |       0.0000 |       0.0000 |       0.0000 |       0.0000 |       0.0000 |       0.0000 |       0.0000 |       0.0000 |       0.0000 |       0.0000 |       0.0000 |       0.0000 |       0.0000 |       0.0000 |       0.0000 |       0.0000 |       0.0000 |       0.0000 |       0.0000 |       0.0000 |       0.0000 |       0.0000 |       0.0000 |       0.0000 |       0.0000 |       0.0000 |       0.0000 |       0.0000 |       0.0000 |       0.0000 |       0.0000 |       0.0000 |       0.0000 |       0.0000 |       0.0000 |       0.0000 |       0.0000 |       0.0000 |       0.0000 |       0.0000 |       0.0000 |       0.0000 |       0.0000 |
itlb.inv_rate                               0.0000 |       0.0000 |       0.0000 |       0.0000 |       0.0000 |       0.0000 |       0.0000 |       0.0000 |       0.0000 |       0.0000 |       0.0000 |       0.0000 |       0.0000 |       0.0000 |       0.0000 |       0.0000 |       0.0000 |       0.0000 |       0.0000 |       0.0000 |       0.0000 |       0.0000 |       0.0000 |       0.0000 |       0.0000 |       0.0000 |       0.0000 |       0.0000 |       0.0000 |       0.0000 |       0.0000 |       0.0000 |       0.0000 |       0.0000 |       0.0000 |       0.0000 |       0.0000 |       0.0000 |       0.0000 |       0.0000 |       0.0000 |       0.0000 |       0.0000 |       0.0000 |
dtlb.accesses                               245039 |       245039 |       245039 |       245039 |       504921 |       504921 |       504921 |       504921 |      1117854 |      1117854 |      1117854 |      1117854 |      2303352 |      2303352 |      2303352 |      2303352 |      5048048 |      5048048 |      5048048 |      5048048 |     10380066 |     10380066 |     10380066 |     10380066 |     22535498 |     22535498 |     22535498 |     22535498 |     47807282 |     47807282 |     47807282 |     47807282 |    102717065 |    102717065 |    102717065 |    102717065 |    210064052 |    210064052 |    210064052 |    210064052 |    448599363 |    448599363 |    448599363 |    448599363 |
dtlb.hits                                   245023 |       245023 |       245023 |       245023 |       504897 |       504897 |       504897 |       504897 |      1117814 |      1117814 |      1117814 |      1117814 |      2303280 |      2303280 |      2303280 |      2303280 |      5047863 |      5047863 |      5047863 |      5047863 |     10377640 |     10377640 |     10377640 |     10377640 |     22530084 |     22530084 |     22530084 |     22530084 |     47794530 |     47794530 |     47794530 |     47794530 |    102689525 |    102689525 |    102689525 |    102689525 |    210004894 |    210004894 |    210004894 |    210004894 |    448472849 |    448472849 |    448472849 |    448472849 |
dtlb.misses                                     16 |           16 |           16 |           16 |           24 |           24 |           24 |           24 |           40 |           40 |           40 |           40 |           72 |           72 |           72 |           72 |          185 |          185 |          185 |          185 |         2426 |         2426 |         2426 |         2426 |         5414 |         5414 |         5414 |         5414 |        12752 |        12752 |        12752 |        12752 |        27540 |        27540 |        27540 |        27540 |        59158 |        59158 |        59158 |        59158 |       126514 |       126514 |       126514 |       126514 |
dtlb.replacements                                0 |            0 |            0 |            0 |            0 |            0 |            0 |            0 |            0 |            0 |            0 |            0 |            0 |            0 |            0 |            0 |           57 |           57 |           57 |           57 |         2298 |         2298 |         2298 |         2298 |         5286 |         5286 |         5286 |         5286 |        12624 |        12624 |        12624 |        12624 |        27412 |        27412 |        27412 |        27412 |        59030 |        59030 |        59030 |        59030 |       126386 |       126386 |       126386 |       126386 |
dtlb.writebacks                                  0 |            0 |            0 |            0 |            0 |            0 |            0 |            0 |            0 |            0 |            0 |            0 |            0 |            0 |            0 |            0 |           37 |           37 |           37 |           37 |         1333 |         1333 |         1333 |         1333 |         3029 |         3029 |         3029 |         3029 |         7088 |         7088 |         7088 |         7088 |        15254 |        15254 |        15254 |        15254 |        32613 |        32613 |        32613 |        32613 |        69382 |        69382 |        69382 |        69382 |
dtlb.invalidations                               0 |            0 |            0 |            0 |            0 |            0 |            0 |            0 |            0 |            0 |            0 |            0 |            0 |            0 |            0 |            0 |            0 |            0 |            0 |            0 |            0 |            0 |            0 |            0 |            0 |            0 |            0 |            0 |            0 |            0 |            0 |            0 |            0 |            0 |            0 |            0 |            0 |            0 |            0 |            0 |            0 |            0 |            0 |            0 |
dtlb.miss_rate                              0.0001 |       0.0001 |       0.0001 |       0.0001 |       0.0000 |       0.0000 |       0.0000 |       0.0000 |       0.0000 |       0.0000 |       0.0000 |       0.0000 |       0.0000 |       0.0000 |       0.0000 |       0.0000 |       0.0000 |       0.0000 |       0.0000 |       0.0000 |       0.0002 |       0.0002 |       0.0002 |       0.0002 |       0.0002 |       0.0002 |       0.0002 |       0.0002 |       0.0003 |       0.0003 |       0.0003 |       0.0003 |       0.0003 |       0.0003 |       0.0003 |       0.0003 |       0.0003 |       0.0003 |       0.0003 |       0.0003 |       0.0003 |       0.0003 |       0.0003 |       0.0003 |
dtlb.repl_rate                              0.0000 |       0.0000 |       0.0000 |       0.0000 |       0.0000 |       0.0000 |       0.0000 |       0.0000 |       0.0000 |       0.0000 |       0.0000 |       0.0000 |       0.0000 |       0.0000 |       0.0000 |       0.0000 |       0.0000 |       0.0000 |       0.0000 |       0.0000 |       0.0002 |       0.0002 |       0.0002 |       0.0002 |       0.0002 |       0.0002 |       0.0002 |       0.0002 |       0.0003 |       0.0003 |       0.0003 |       0.0003 |       0.0003 |       0.0003 |       0.0003 |       0.0003 |       0.0003 |       0.0003 |       0.0003 |       0.0003 |       0.0003 |       0.0003 |       0.0003 |       0.0003 |
dtlb.wb_rate                                0.0000 |       0.0000 |       0.0000 |       0.0000 |       0.0000 |       0.0000 |       0.0000 |       0.0000 |       0.0000 |       0.0000 |       0.0000 |       0.0000 |       0.0000 |       0.0000 |       0.0000 |       0.0000 |       0.0000 |       0.0000 |       0.0000 |       0.0000 |       0.0001 |       0.0001 |       0.0001 |       0.0001 |       0.0001 |       0.0001 |       0.0001 |       0.0001 |       0.0001 |       0.0001 |       0.0001 |       0.0001 |       0.0001 |       0.0001 |       0.0001 |       0.0001 |       0.0002 |       0.0002 |       0.0002 |       0.0002 |       0.0002 |       0.0002 |       0.0002 |       0.0002 |
dtlb.inv_rate                               0.0000 |       0.0000 |       0.0000 |       0.0000 |       0.0000 |       0.0000 |       0.0000 |       0.0000 |       0.0000 |       0.0000 |       0.0000 |       0.0000 |       0.0000 |       0.0000 |       0.0000 |       0.0000 |       0.0000 |       0.0000 |       0.0000 |       0.0000 |       0.0000 |       0.0000 |       0.0000 |       0.0000 |       0.0000 |       0.0000 |       0.0000 |       0.0000 |       0.0000 |       0.0000 |       0.0000 |       0.0000 |       0.0000 |       0.0000 |       0.0000 |       0.0000 |       0.0000 |       0.0000 |       0.0000 |       0.0000 |       0.0000 |       0.0000 |       0.0000 |       0.0000 |
ld_text_base                            0x00400000 |   0x00400000 |   0x00400000 |   0x00400000 |   0x00400000 |   0x00400000 |   0x00400000 |   0x00400000 |   0x00400000 |   0x00400000 |   0x00400000 |   0x00400000 |   0x00400000 |   0x00400000 |   0x00400000 |   0x00400000 |   0x00400000 |   0x00400000 |   0x00400000 |   0x00400000 |   0x00400000 |   0x00400000 |   0x00400000 |   0x00400000 |   0x00400000 |   0x00400000 |   0x00400000 |   0x00400000 |   0x00400000 |   0x00400000 |   0x00400000 |   0x00400000 |   0x00400000 |   0x00400000 |   0x00400000 |   0x00400000 |   0x00400000 |   0x00400000 |   0x00400000 |   0x00400000 |   0x00400000 |   0x00400000 |   0x00400000 |   0x00400000 |
ld_text_size                                 87648 |        87648 |        87648 |        87648 |        87680 |        87680 |        87680 |        87680 |        87696 |        87696 |        87696 |        87696 |        87712 |        87712 |        87712 |        87712 |        87712 |        87712 |        87712 |        87712 |        87712 |        87712 |        87712 |        87712 |        87712 |        87712 |        87712 |        87712 |        87712 |        87712 |        87712 |        87712 |        87712 |        87712 |        87712 |        87712 |        87712 |        87712 |        87712 |        87712 |        87712 |        87712 |        87712 |        87712 |
ld_data_base                            0x10000000 |   0x10000000 |   0x10000000 |   0x10000000 |   0x10000000 |   0x10000000 |   0x10000000 |   0x10000000 |   0x10000000 |   0x10000000 |   0x10000000 |   0x10000000 |   0x10000000 |   0x10000000 |   0x10000000 |   0x10000000 |   0x10000000 |   0x10000000 |   0x10000000 |   0x10000000 |   0x10000000 |   0x10000000 |   0x10000000 |   0x10000000 |   0x10000000 |   0x10000000 |   0x10000000 |   0x10000000 |   0x10000000 |   0x10000000 |   0x10000000 |   0x10000000 |   0x10000000 |   0x10000000 |   0x10000000 |   0x10000000 |   0x10000000 |   0x10000000 |   0x10000000 |   0x10000000 |   0x10000000 |   0x10000000 |   0x10000000 |   0x10000000 |
ld_data_size                                  8192 |         8192 |         8192 |         8192 |         8192 |         8192 |         8192 |         8192 |         8192 |         8192 |         8192 |         8192 |         8192 |         8192 |         8192 |         8192 |         8192 |         8192 |         8192 |         8192 |         8192 |         8192 |         8192 |         8192 |         8192 |         8192 |         8192 |         8192 |         8192 |         8192 |         8192 |         8192 |         8192 |         8192 |         8192 |         8192 |         8192 |         8192 |         8192 |         8192 |         8192 |         8192 |         8192 |         8192 |
ld_stack_base                           0x7fffc000 |   0x7fffc000 |   0x7fffc000 |   0x7fffc000 |   0x7fffc000 |   0x7fffc000 |   0x7fffc000 |   0x7fffc000 |   0x7fffc000 |   0x7fffc000 |   0x7fffc000 |   0x7fffc000 |   0x7fffc000 |   0x7fffc000 |   0x7fffc000 |   0x7fffc000 |   0x7fffc000 |   0x7fffc000 |   0x7fffc000 |   0x7fffc000 |   0x7fffc000 |   0x7fffc000 |   0x7fffc000 |   0x7fffc000 |   0x7fffc000 |   0x7fffc000 |   0x7fffc000 |   0x7fffc000 |   0x7fffc000 |   0x7fffc000 |   0x7fffc000 |   0x7fffc000 |   0x7fffc000 |   0x7fffc000 |   0x7fffc000 |   0x7fffc000 |   0x7fffc000 |   0x7fffc000 |   0x7fffc000 |   0x7fffc000 |   0x7fffc000 |   0x7fffc000 |   0x7fffc000 |   0x7fffc000 |
ld_stack_size                                16384 |        16384 |        16384 |        16384 |        16384 |        16384 |        16384 |        16384 |        16384 |        16384 |        16384 |        16384 |        16384 |        16384 |        16384 |        16384 |        16384 |        16384 |        16384 |        16384 |        16384 |        16384 |        16384 |        16384 |        16384 |        16384 |        16384 |        16384 |        16384 |        16384 |        16384 |        16384 |        16384 |        16384 |        16384 |        16384 |        16384 |        16384 |        16384 |        16384 |        16384 |        16384 |        16384 |        16384 |
ld_prog_entry                           0x00400140 |   0x00400140 |   0x00400140 |   0x00400140 |   0x00400140 |   0x00400140 |   0x00400140 |   0x00400140 |   0x00400140 |   0x00400140 |   0x00400140 |   0x00400140 |   0x00400140 |   0x00400140 |   0x00400140 |   0x00400140 |   0x00400140 |   0x00400140 |   0x00400140 |   0x00400140 |   0x00400140 |   0x00400140 |   0x00400140 |   0x00400140 |   0x00400140 |   0x00400140 |   0x00400140 |   0x00400140 |   0x00400140 |   0x00400140 |   0x00400140 |   0x00400140 |   0x00400140 |   0x00400140 |   0x00400140 |   0x00400140 |   0x00400140 |   0x00400140 |   0x00400140 |   0x00400140 |   0x00400140 |   0x00400140 |   0x00400140 |   0x00400140 |
ld_environ_base                         0x7fff8000 |   0x7fff8000 |   0x7fff8000 |   0x7fff8000 |   0x7fff8000 |   0x7fff8000 |   0x7fff8000 |   0x7fff8000 |   0x7fff8000 |   0x7fff8000 |   0x7fff8000 |   0x7fff8000 |   0x7fff8000 |   0x7fff8000 |   0x7fff8000 |   0x7fff8000 |   0x7fff8000 |   0x7fff8000 |   0x7fff8000 |   0x7fff8000 |   0x7fff8000 |   0x7fff8000 |   0x7fff8000 |   0x7fff8000 |   0x7fff8000 |   0x7fff8000 |   0x7fff8000 |   0x7fff8000 |   0x7fff8000 |   0x7fff8000 |   0x7fff8000 |   0x7fff8000 |   0x7fff8000 |   0x7fff8000 |   0x7fff8000 |   0x7fff8000 |   0x7fff8000 |   0x7fff8000 |   0x7fff8000 |   0x7fff8000 |   0x7fff8000 |   0x7fff8000 |   0x7fff8000 |   0x7fff8000 |
ld_target_big_endian                             0 |            0 |            0 |            0 |            0 |            0 |            0 |            0 |            0 |            0 |            0 |            0 |            0 |            0 |            0 |            0 |            0 |            0 |            0 |            0 |            0 |            0 |            0 |            0 |            0 |            0 |            0 |            0 |            0 |            0 |            0 |            0 |            0 |            0 |            0 |            0 |            0 |            0 |            0 |            0 |            0 |            0 |            0 |            0 |
mem.page_count                                  38 |           38 |           38 |           38 |           46 |           46 |           46 |           46 |           62 |           62 |           62 |           62 |           94 |           94 |           94 |           94 |          158 |          158 |          158 |          158 |          286 |          286 |          286 |          286 |          542 |          542 |          542 |          542 |         1060 |         1060 |         1060 |         1060 |         2084 |         2084 |         2084 |         2084 |         4138 |         4138 |         4138 |         4138 |         8246 |         8246 |         8246 |         8246 |
mem.page_mem                                  152k |         152k |         152k |         152k |         184k |         184k |         184k |         184k |         248k |         248k |         248k |         248k |         376k |         376k |         376k |         376k |         632k |         632k |         632k |         632k |        1144k |        1144k |        1144k |        1144k |        2168k |        2168k |        2168k |        2168k |        4240k |        4240k |        4240k |        4240k |        8336k |        8336k |        8336k |        8336k |       16552k |       16552k |       16552k |       16552k |       32984k |       32984k |       32984k |       32984k |
mem.ptab_misses                                 38 |           38 |           38 |           38 |           46 |           46 |           46 |           46 |           62 |           62 |           62 |           62 |           94 |           94 |           94 |           94 |          158 |          158 |          158 |          158 |          286 |          286 |          286 |          286 |          542 |          542 |          542 |          542 |         1078 |         1078 |         1078 |         1078 |        99508 |        99508 |        99508 |        99508 |       101688 |       101688 |       101688 |       101688 |       114818 |       114818 |       114818 |       114818 |
mem.ptab_accesses                          4462104 |      4462104 |      4462104 |      4462104 |      8553904 |      8553904 |      8553904 |      8553904 |     18626334 |     18626334 |     18626334 |     18626334 |     37423306 |     37423306 |     37423306 |     37423306 |     82585446 |     82585446 |     82585446 |     82585446 |    167600078 |    167600078 |    167600078 |    167600078 |    367867154 |    367867154 |    367867154 |    367867154 |    769918378 |    769918378 |    769918378 |    769918378 |   1672127648 |   1672127648 |   1672127648 |   1672127648 |   3392359818 |   3392359818 |   3392359818 |   3392359818 |   7316200920 |   7316200920 |   7316200920 |   7316200920 |
mem.ptab_miss_rate                          0.0000 |       0.0000 |       0.0000 |       0.0000 |       0.0000 |       0.0000 |       0.0000 |       0.0000 |       0.0000 |       0.0000 |       0.0000 |       0.0000 |       0.0000 |       0.0000 |       0.0000 |       0.0000 |       0.0000 |       0.0000 |       0.0000 |       0.0000 |       0.0000 |       0.0000 |       0.0000 |       0.0000 |       0.0000 |       0.0000 |       0.0000 |       0.0000 |       0.0000 |       0.0000 |       0.0000 |       0.0000 |       0.0001 |       0.0001 |       0.0001 |       0.0001 |       0.0000 |       0.0000 |       0.0000 |       0.0000 |       0.0000 |       0.0000 |       0.0000 |       0.0000 |
-------------------------------------------------------------------------------------------------
sim-bpred                                     4096 |         4096 |         4096 |         4096 |         4096 |         4096 |         4096 |         8192 |         8192 |         8192 |         8192 |         8192 |         8192 |         8192 |        16384 |        16384 |        16384 |        16384 |        16384 |        16384 |        16384 |        32768 |        32768 |        32768 |        32768 |        32768 |        32768 |        32768 |        65536 |        65536 |        65536 |        65536 |        65536 |        65536 |        65536 |       131072 |       131072 |       131072 |       131072 |       131072 |       131072 |       131072 |       262144 |       262144 |       262144 |       262144 |       262144 |       262144 |       262144 |       524288 |       524288 |       524288 |       524288 |       524288 |       524288 |       524288 |      1048576 |      1048576 |      1048576 |      1048576 |      1048576 |      1048576 |      1048576 |      2097152 |      2097152 |      2097152 |      2097152 |      2097152 |      2097152 |      2097152 |      4194304 |      4194304 |      4194304 |      4194304 |      4194304 |      4194304 |      4194304 |
-bpred bimod -bpred:bimod 512
-bpred bimod -bpred:bimod 1024
-bpred bimod -bpred:bimod 2048
-bpred 2lev -bpred:2lev 1 512 10 1
-bpred 2lev -bpred:2lev 1 1024 10 1
-bpred 2lev -bpred:2lev 1 2048 10 1
-bpred 2lev -bpred:2lev 1 4096 10 1
-------------------------------------------------------------------------------------------------
sim_num_insn                                857882 |       857882 |       857882 |       857882 |       857882 |       857882 |       857882 |      1750843 |      1750843 |      1750843 |      1750843 |      1750843 |      1750843 |      1750843 |      3962460 |      3962460 |      3962460 |      3962460 |      3962460 |      3962460 |      3962460 |      8068930 |      8068930 |      8068930 |      8068930 |      8068930 |      8068930 |      8068930 |     17987117 |     17987117 |     17987117 |     17987117 |     17987117 |     17987117 |     17987117 |     36574766 |     36574766 |     36574766 |     36574766 |     36574766 |     36574766 |     36574766 |     80563819 |     80563819 |     80563819 |     80563819 |     80563819 |     80563819 |     80563819 |    168440733 |    168440733 |    168440733 |    168440733 |    168440733 |    168440733 |    168440733 |    366538159 |    366538159 |    366538159 |    366538159 |    366538159 |    366538159 |    366538159 |    742922708 |    742922708 |    742922708 |    742922708 |    742922708 |    742922708 |    742922708 |   1604615328 |   1604615328 |   1604615328 |   1604615328 |   1604615328 |   1604615328 |   1604615328 |
sim_num_refs                                228573 |       228573 |       228573 |       228573 |       228573 |       228573 |       228573 |       472071 |       472071 |       472071 |       472071 |       472071 |       472071 |       472071 |      1052236 |      1052236 |      1052236 |      1052236 |      1052236 |      1052236 |      1052236 |      2172198 |      2172198 |      2172198 |      2172198 |      2172198 |      2172198 |      2172198 |      4785822 |      4785822 |      4785822 |      4785822 |      4785822 |      4785822 |      4785822 |      9855696 |      9855696 |      9855696 |      9855696 |      9855696 |      9855696 |      9855696 |     21486840 |     21486840 |     21486840 |     21486840 |     21486840 |     21486840 |     21486840 |     45710048 |     45710048 |     45710048 |     45710048 |     45710048 |     45710048 |     45710048 |     98522679 |     98522679 |     98522679 |     98522679 |     98522679 |     98522679 |     98522679 |    201675362 |    201675362 |    201675362 |    201675362 |    201675362 |    201675362 |    201675362 |    431822065 |    431822065 |    431822065 |    431822065 |    431822065 |    431822065 |    431822065 |
sim_elapsed_time                                 1 |            1 |            1 |            1 |            1 |            1 |            1 |            1 |            1 |            1 |            1 |            1 |            1 |            1 |            1 |            1 |            1 |            1 |            1 |            1 |            1 |            1 |            1 |            1 |            1 |            1 |            1 |            1 |            2 |            2 |            2 |            2 |            2 |            2 |            2 |            4 |            5 |            4 |            4 |            4 |            4 |            4 |            9 |            9 |            9 |            9 |            9 |            9 |            9 |           19 |           18 |           19 |           20 |           19 |           19 |           19 |           42 |           42 |           41 |           41 |           41 |           41 |           42 |           83 |           83 |           82 |           84 |           84 |           84 |           84 |          180 |          179 |          180 |          181 |          181 |          182 |          181 |
sim_inst_rate                          857882.0000 |  857882.0000 |  857882.0000 |  857882.0000 |  857882.0000 |  857882.0000 |  857882.0000 | 1750843.0000 | 1750843.0000 | 1750843.0000 | 1750843.0000 | 1750843.0000 | 1750843.0000 | 1750843.0000 | 3962460.0000 | 3962460.0000 | 3962460.0000 | 3962460.0000 | 3962460.0000 | 3962460.0000 | 3962460.0000 | 8068930.0000 | 8068930.0000 | 8068930.0000 | 8068930.0000 | 8068930.0000 | 8068930.0000 | 8068930.0000 | 8993558.5000 | 8993558.5000 | 8993558.5000 | 8993558.5000 | 8993558.5000 | 8993558.5000 | 8993558.5000 | 9143691.5000 | 7314953.2000 | 9143691.5000 | 9143691.5000 | 9143691.5000 | 9143691.5000 | 9143691.5000 | 8951535.4444 | 8951535.4444 | 8951535.4444 | 8951535.4444 | 8951535.4444 | 8951535.4444 | 8951535.4444 | 8865301.7368 | 9357818.5000 | 8865301.7368 | 8422036.6500 | 8865301.7368 | 8865301.7368 | 8865301.7368 | 8727099.0238 | 8727099.0238 | 8939955.0976 | 8939955.0976 | 8939955.0976 | 8939955.0976 | 8727099.0238 | 8950876.0000 | 8950876.0000 | 9060033.0244 | 8844317.9524 | 8844317.9524 | 8844317.9524 | 8844317.9524 | 8914529.6000 | 8964331.4413 | 8914529.6000 | 8865278.0552 | 8865278.0552 | 8816567.7363 | 8865278.0552 |
sim_num_branches                            112690 |       112690 |       112690 |       112690 |       112690 |       112690 |       112690 |       235895 |       235895 |       235895 |       235895 |       235895 |       235895 |       235895 |       515360 |       515360 |       515360 |       515360 |       515360 |       515360 |       515360 |      1072690 |      1072690 |      1072690 |      1072690 |      1072690 |      1072690 |      1072690 |      2320596 |      2320596 |      2320596 |      2320596 |      2320596 |      2320596 |      2320596 |      4812962 |      4812962 |      4812962 |      4812962 |      4812962 |      4812962 |      4812962 |     10327088 |     10327088 |     10327088 |     10327088 |     10327088 |     10327088 |     10327088 |     21940392 |     21940392 |     21940392 |     21940392 |     21940392 |     21940392 |     21940392 |     46684908 |     46684908 |     46684908 |     46684908 |     46684908 |     46684908 |     46684908 |     96155980 |     96155980 |     96155980 |     96155980 |     96155980 |     96155980 |     96155980 |    203548899 |    203548899 |    203548899 |    203548899 |    203548899 |    203548899 |    203548899 |
sim_IPB                                     7.6128 |       7.6128 |       7.6128 |       7.6128 |       7.6128 |       7.6128 |       7.6128 |       7.4221 |       7.4221 |       7.4221 |       7.4221 |       7.4221 |       7.4221 |       7.4221 |       7.6887 |       7.6887 |       7.6887 |       7.6887 |       7.6887 |       7.6887 |       7.6887 |       7.5221 |       7.5221 |       7.5221 |       7.5221 |       7.5221 |       7.5221 |       7.5221 |       7.7511 |       7.7511 |       7.7511 |       7.7511 |       7.7511 |       7.7511 |       7.7511 |       7.5992 |       7.5992 |       7.5992 |       7.5992 |       7.5992 |       7.5992 |       7.5992 |       7.8012 |       7.8012 |       7.8012 |       7.8012 |       7.8012 |       7.8012 |       7.8012 |       7.6772 |       7.6772 |       7.6772 |       7.6772 |       7.6772 |       7.6772 |       7.6772 |       7.8513 |       7.8513 |       7.8513 |       7.8513 |       7.8513 |       7.8513 |       7.8513 |       7.7262 |       7.7262 |       7.7262 |       7.7262 |       7.7262 |       7.7262 |       7.7262 |       7.8832 |       7.8832 |       7.8832 |       7.8832 |       7.8832 |       7.8832 |       7.8832 |
bpred_bimod.lookups                         112690 |       112690 |       112690 |xxxxxxxxxxxxx |xxxxxxxxxxxxx |xxxxxxxxxxxxx |xxxxxxxxxxxxx |       235895 |       235895 |       235895 |xxxxxxxxxxxxx |xxxxxxxxxxxxx |xxxxxxxxxxxxx |xxxxxxxxxxxxx |       515360 |       515360 |       515360 |xxxxxxxxxxxxx |xxxxxxxxxxxxx |xxxxxxxxxxxxx |xxxxxxxxxxxxx |      1072690 |      1072690 |      1072690 |xxxxxxxxxxxxx |xxxxxxxxxxxxx |xxxxxxxxxxxxx |xxxxxxxxxxxxx |      2320596 |      2320596 |      2320596 |xxxxxxxxxxxxx |xxxxxxxxxxxxx |xxxxxxxxxxxxx |xxxxxxxxxxxxx |      4812962 |      4812962 |      4812962 |xxxxxxxxxxxxx |xxxxxxxxxxxxx |xxxxxxxxxxxxx |xxxxxxxxxxxxx |     10327088 |     10327088 |     10327088 |xxxxxxxxxxxxx |xxxxxxxxxxxxx |xxxxxxxxxxxxx |xxxxxxxxxxxxx |     21940392 |     21940392 |     21940392 |xxxxxxxxxxxxx |xxxxxxxxxxxxx |xxxxxxxxxxxxx |xxxxxxxxxxxxx |     46684908 |     46684908 |     46684908 |xxxxxxxxxxxxx |xxxxxxxxxxxxx |xxxxxxxxxxxxx |xxxxxxxxxxxxx |     96155980 |     96155980 |     96155980 |xxxxxxxxxxxxx |xxxxxxxxxxxxx |xxxxxxxxxxxxx |xxxxxxxxxxxxx |    203548899 |    203548899 |    203548899 |
bpred_bimod.updates                         112690 |       112690 |       112690 |xxxxxxxxxxxxx |xxxxxxxxxxxxx |xxxxxxxxxxxxx |xxxxxxxxxxxxx |       235895 |       235895 |       235895 |xxxxxxxxxxxxx |xxxxxxxxxxxxx |xxxxxxxxxxxxx |xxxxxxxxxxxxx |       515360 |       515360 |       515360 |xxxxxxxxxxxxx |xxxxxxxxxxxxx |xxxxxxxxxxxxx |xxxxxxxxxxxxx |      1072690 |      1072690 |      1072690 |xxxxxxxxxxxxx |xxxxxxxxxxxxx |xxxxxxxxxxxxx |xxxxxxxxxxxxx |      2320596 |      2320596 |      2320596 |xxxxxxxxxxxxx |xxxxxxxxxxxxx |xxxxxxxxxxxxx |xxxxxxxxxxxxx |      4812962 |      4812962 |      4812962 |xxxxxxxxxxxxx |xxxxxxxxxxxxx |xxxxxxxxxxxxx |xxxxxxxxxxxxx |     10327088 |     10327088 |     10327088 |xxxxxxxxxxxxx |xxxxxxxxxxxxx |xxxxxxxxxxxxx |xxxxxxxxxxxxx |     21940392 |     21940392 |     21940392 |xxxxxxxxxxxxx |xxxxxxxxxxxxx |xxxxxxxxxxxxx |xxxxxxxxxxxxx |     46684908 |     46684908 |     46684908 |xxxxxxxxxxxxx |xxxxxxxxxxxxx |xxxxxxxxxxxxx |xxxxxxxxxxxxx |     96155980 |     96155980 |     96155980 |xxxxxxxxxxxxx |xxxxxxxxxxxxx |xxxxxxxxxxxxx |xxxxxxxxxxxxx |    203548899 |    203548899 |    203548899 |
bpred_bimod.addr_hits                        86774 |        86786 |        86788 |xxxxxxxxxxxxx |xxxxxxxxxxxxx |xxxxxxxxxxxxx |xxxxxxxxxxxxx |       183922 |       183930 |       183929 |xxxxxxxxxxxxx |xxxxxxxxxxxxx |xxxxxxxxxxxxx |xxxxxxxxxxxxx |       396756 |       396777 |       396781 |xxxxxxxxxxxxx |xxxxxxxxxxxxx |xxxxxxxxxxxxx |xxxxxxxxxxxxx |       833494 |       833509 |       833511 |xxxxxxxxxxxxx |xxxxxxxxxxxxx |xxxxxxxxxxxxx |xxxxxxxxxxxxx |      1781817 |      1781882 |      1781885 |xxxxxxxxxxxxx |xxxxxxxxxxxxx |xxxxxxxxxxxxx |xxxxxxxxxxxxx |      3725969 |      3726012 |      3726013 |xxxxxxxxxxxxx |xxxxxxxxxxxxx |xxxxxxxxxxxxx |xxxxxxxxxxxxx |      7912630 |      7912914 |      7912917 |xxxxxxxxxxxxx |xxxxxxxxxxxxx |xxxxxxxxxxxxx |xxxxxxxxxxxxx |     17071801 |     17071964 |     17071966 |xxxxxxxxxxxxx |xxxxxxxxxxxxx |xxxxxxxxxxxxx |xxxxxxxxxxxxx |     35987338 |     35988414 |     35988414 |xxxxxxxxxxxxx |xxxxxxxxxxxxx |xxxxxxxxxxxxx |xxxxxxxxxxxxx |     74596483 |     74597109 |     74597114 |xxxxxxxxxxxxx |xxxxxxxxxxxxx |xxxxxxxxxxxxx |xxxxxxxxxxxxx |    156571821 |    156576093 |    156576093 |
bpred_bimod.dir_hits                         86928 |        86941 |        86943 |xxxxxxxxxxxxx |xxxxxxxxxxxxx |xxxxxxxxxxxxx |xxxxxxxxxxxxx |       184077 |       184086 |       184086 |xxxxxxxxxxxxx |xxxxxxxxxxxxx |xxxxxxxxxxxxx |xxxxxxxxxxxxx |       396915 |       396933 |       396938 |xxxxxxxxxxxxx |xxxxxxxxxxxxx |xxxxxxxxxxxxx |xxxxxxxxxxxxx |       833649 |       833664 |       833668 |xxxxxxxxxxxxx |xxxxxxxxxxxxx |xxxxxxxxxxxxx |xxxxxxxxxxxxx |      1781971 |      1782037 |      1782042 |xxxxxxxxxxxxx |xxxxxxxxxxxxx |xxxxxxxxxxxxx |xxxxxxxxxxxxx |      3726125 |      3726168 |      3726171 |xxxxxxxxxxxxx |xxxxxxxxxxxxx |xxxxxxxxxxxxx |xxxxxxxxxxxxx |      7912780 |      7913065 |      7913070 |xxxxxxxxxxxxx |xxxxxxxxxxxxx |xxxxxxxxxxxxx |xxxxxxxxxxxxx |     17071980 |     17072142 |     17072144 |xxxxxxxxxxxxx |xxxxxxxxxxxxx |xxxxxxxxxxxxx |xxxxxxxxxxxxx |     35987517 |     35988593 |     35988593 |xxxxxxxxxxxxx |xxxxxxxxxxxxx |xxxxxxxxxxxxx |xxxxxxxxxxxxx |     74596662 |     74597287 |     74597293 |xxxxxxxxxxxxx |xxxxxxxxxxxxx |xxxxxxxxxxxxx |xxxxxxxxxxxxx |    156572000 |    156576272 |    156576272 |
bpred_bimod.misses                           25762 |        25749 |        25747 |xxxxxxxxxxxxx |xxxxxxxxxxxxx |xxxxxxxxxxxxx |xxxxxxxxxxxxx |        51818 |        51809 |        51809 |xxxxxxxxxxxxx |xxxxxxxxxxxxx |xxxxxxxxxxxxx |xxxxxxxxxxxxx |       118445 |       118427 |       118422 |xxxxxxxxxxxxx |xxxxxxxxxxxxx |xxxxxxxxxxxxx |xxxxxxxxxxxxx |       239041 |       239026 |       239022 |xxxxxxxxxxxxx |xxxxxxxxxxxxx |xxxxxxxxxxxxx |xxxxxxxxxxxxx |       538625 |       538559 |       538554 |xxxxxxxxxxxxx |xxxxxxxxxxxxx |xxxxxxxxxxxxx |xxxxxxxxxxxxx |      1086837 |      1086794 |      1086791 |xxxxxxxxxxxxx |xxxxxxxxxxxxx |xxxxxxxxxxxxx |xxxxxxxxxxxxx |      2414308 |      2414023 |      2414018 |xxxxxxxxxxxxx |xxxxxxxxxxxxx |xxxxxxxxxxxxx |xxxxxxxxxxxxx |      4868412 |      4868250 |      4868248 |xxxxxxxxxxxxx |xxxxxxxxxxxxx |xxxxxxxxxxxxx |xxxxxxxxxxxxx |     10697391 |     10696315 |     10696315 |xxxxxxxxxxxxx |xxxxxxxxxxxxx |xxxxxxxxxxxxx |xxxxxxxxxxxxx |     21559318 |     21558693 |     21558687 |xxxxxxxxxxxxx |xxxxxxxxxxxxx |xxxxxxxxxxxxx |xxxxxxxxxxxxx |     46976899 |     46972627 |     46972627 |
bpred_bimod.jr_hits                             79 |           79 |           79 |xxxxxxxxxxxxx |xxxxxxxxxxxxx |xxxxxxxxxxxxx |xxxxxxxxxxxxx |           87 |           87 |           87 |xxxxxxxxxxxxx |xxxxxxxxxxxxx |xxxxxxxxxxxxx |xxxxxxxxxxxxx |          103 |          103 |          103 |xxxxxxxxxxxxx |xxxxxxxxxxxxx |xxxxxxxxxxxxx |xxxxxxxxxxxxx |          135 |          135 |          135 |xxxxxxxxxxxxx |xxxxxxxxxxxxx |xxxxxxxxxxxxx |xxxxxxxxxxxxx |          199 |          199 |          199 |xxxxxxxxxxxxx |xxxxxxxxxxxxx |xxxxxxxxxxxxx |xxxxxxxxxxxxx |          327 |          327 |          327 |xxxxxxxxxxxxx |xxxxxxxxxxxxx |xxxxxxxxxxxxx |xxxxxxxxxxxxx |          583 |          583 |          583 |xxxxxxxxxxxxx |xxxxxxxxxxxxx |xxxxxxxxxxxxx |xxxxxxxxxxxxx |         1100 |         1100 |         1100 |xxxxxxxxxxxxx |xxxxxxxxxxxxx |xxxxxxxxxxxxx |xxxxxxxxxxxxx |         2126 |         2126 |         2126 |xxxxxxxxxxxxx |xxxxxxxxxxxxx |xxxxxxxxxxxxx |xxxxxxxxxxxxx |         4178 |         4178 |         4178 |xxxxxxxxxxxxx |xxxxxxxxxxxxx |xxxxxxxxxxxxx |xxxxxxxxxxxxx |         8282 |         8282 |         8282 |
bpred_bimod.jr_seen                             80 |           80 |           80 |xxxxxxxxxxxxx |xxxxxxxxxxxxx |xxxxxxxxxxxxx |xxxxxxxxxxxxx |           88 |           88 |           88 |xxxxxxxxxxxxx |xxxxxxxxxxxxx |xxxxxxxxxxxxx |xxxxxxxxxxxxx |          104 |          104 |          104 |xxxxxxxxxxxxx |xxxxxxxxxxxxx |xxxxxxxxxxxxx |xxxxxxxxxxxxx |          136 |          136 |          136 |xxxxxxxxxxxxx |xxxxxxxxxxxxx |xxxxxxxxxxxxx |xxxxxxxxxxxxx |          200 |          200 |          200 |xxxxxxxxxxxxx |xxxxxxxxxxxxx |xxxxxxxxxxxxx |xxxxxxxxxxxxx |          328 |          328 |          328 |xxxxxxxxxxxxx |xxxxxxxxxxxxx |xxxxxxxxxxxxx |xxxxxxxxxxxxx |          584 |          584 |          584 |xxxxxxxxxxxxx |xxxxxxxxxxxxx |xxxxxxxxxxxxx |xxxxxxxxxxxxx |         1101 |         1101 |         1101 |xxxxxxxxxxxxx |xxxxxxxxxxxxx |xxxxxxxxxxxxx |xxxxxxxxxxxxx |         2127 |         2127 |         2127 |xxxxxxxxxxxxx |xxxxxxxxxxxxx |xxxxxxxxxxxxx |xxxxxxxxxxxxx |         4179 |         4179 |         4179 |xxxxxxxxxxxxx |xxxxxxxxxxxxx |xxxxxxxxxxxxx |xxxxxxxxxxxxx |         8283 |         8283 |         8283 |
bpred_bimod.jr_non_ras_hits.PP                   0 |            0 |            0 |xxxxxxxxxxxxx |xxxxxxxxxxxxx |xxxxxxxxxxxxx |xxxxxxxxxxxxx |            0 |            0 |            0 |xxxxxxxxxxxxx |xxxxxxxxxxxxx |xxxxxxxxxxxxx |xxxxxxxxxxxxx |            0 |            0 |            0 |xxxxxxxxxxxxx |xxxxxxxxxxxxx |xxxxxxxxxxxxx |xxxxxxxxxxxxx |            0 |            0 |            0 |xxxxxxxxxxxxx |xxxxxxxxxxxxx |xxxxxxxxxxxxx |xxxxxxxxxxxxx |            0 |            0 |            0 |xxxxxxxxxxxxx |xxxxxxxxxxxxx |xxxxxxxxxxxxx |xxxxxxxxxxxxx |            0 |            0 |            0 |xxxxxxxxxxxxx |xxxxxxxxxxxxx |xxxxxxxxxxxxx |xxxxxxxxxxxxx |            0 |            0 |            0 |xxxxxxxxxxxxx |xxxxxxxxxxxxx |xxxxxxxxxxxxx |xxxxxxxxxxxxx |            0 |            0 |            0 |xxxxxxxxxxxxx |xxxxxxxxxxxxx |xxxxxxxxxxxxx |xxxxxxxxxxxxx |            0 |            0 |            0 |xxxxxxxxxxxxx |xxxxxxxxxxxxx |xxxxxxxxxxxxx |xxxxxxxxxxxxx |            0 |            0 |            0 |xxxxxxxxxxxxx |xxxxxxxxxxxxx |xxxxxxxxxxxxx |xxxxxxxxxxxxx |            0 |            0 |            0 |
bpred_bimod.jr_non_ras_seen.PP                   0 |            0 |            0 |xxxxxxxxxxxxx |xxxxxxxxxxxxx |xxxxxxxxxxxxx |xxxxxxxxxxxxx |            0 |            0 |            0 |xxxxxxxxxxxxx |xxxxxxxxxxxxx |xxxxxxxxxxxxx |xxxxxxxxxxxxx |            0 |            0 |            0 |xxxxxxxxxxxxx |xxxxxxxxxxxxx |xxxxxxxxxxxxx |xxxxxxxxxxxxx |            0 |            0 |            0 |xxxxxxxxxxxxx |xxxxxxxxxxxxx |xxxxxxxxxxxxx |xxxxxxxxxxxxx |            0 |            0 |            0 |xxxxxxxxxxxxx |xxxxxxxxxxxxx |xxxxxxxxxxxxx |xxxxxxxxxxxxx |            0 |            0 |            0 |xxxxxxxxxxxxx |xxxxxxxxxxxxx |xxxxxxxxxxxxx |xxxxxxxxxxxxx |            0 |            0 |            0 |xxxxxxxxxxxxx |xxxxxxxxxxxxx |xxxxxxxxxxxxx |xxxxxxxxxxxxx |            1 |            1 |            1 |xxxxxxxxxxxxx |xxxxxxxxxxxxx |xxxxxxxxxxxxx |xxxxxxxxxxxxx |            1 |            1 |            1 |xxxxxxxxxxxxx |xxxxxxxxxxxxx |xxxxxxxxxxxxx |xxxxxxxxxxxxx |            1 |            1 |            1 |xxxxxxxxxxxxx |xxxxxxxxxxxxx |xxxxxxxxxxxxx |xxxxxxxxxxxxx |            1 |            1 |            1 |
bpred_bimod.bpred_addr_rate                 0.7700 |       0.7701 |       0.7701 |xxxxxxxxxxxxx |xxxxxxxxxxxxx |xxxxxxxxxxxxx |xxxxxxxxxxxxx |       0.7797 |       0.7797 |       0.7797 |xxxxxxxxxxxxx |xxxxxxxxxxxxx |xxxxxxxxxxxxx |xxxxxxxxxxxxx |       0.7699 |       0.7699 |       0.7699 |xxxxxxxxxxxxx |xxxxxxxxxxxxx |xxxxxxxxxxxxx |xxxxxxxxxxxxx |       0.7770 |       0.7770 |       0.7770 |xxxxxxxxxxxxx |xxxxxxxxxxxxx |xxxxxxxxxxxxx |xxxxxxxxxxxxx |       0.7678 |       0.7679 |       0.7679 |xxxxxxxxxxxxx |xxxxxxxxxxxxx |xxxxxxxxxxxxx |xxxxxxxxxxxxx |       0.7742 |       0.7742 |       0.7742 |xxxxxxxxxxxxx |xxxxxxxxxxxxx |xxxxxxxxxxxxx |xxxxxxxxxxxxx |       0.7662 |       0.7662 |       0.7662 |xxxxxxxxxxxxx |xxxxxxxxxxxxx |xxxxxxxxxxxxx |xxxxxxxxxxxxx |       0.7781 |       0.7781 |       0.7781 |xxxxxxxxxxxxx |xxxxxxxxxxxxx |xxxxxxxxxxxxx |xxxxxxxxxxxxx |       0.7709 |       0.7709 |       0.7709 |xxxxxxxxxxxxx |xxxxxxxxxxxxx |xxxxxxxxxxxxx |xxxxxxxxxxxxx |       0.7758 |       0.7758 |       0.7758 |xxxxxxxxxxxxx |xxxxxxxxxxxxx |xxxxxxxxxxxxx |xxxxxxxxxxxxx |       0.7692 |       0.7692 |       0.7692 |
bpred_bimod.bpred_dir_rate                  0.7714 |       0.7715 |       0.7715 |xxxxxxxxxxxxx |xxxxxxxxxxxxx |xxxxxxxxxxxxx |xxxxxxxxxxxxx |       0.7803 |       0.7804 |       0.7804 |xxxxxxxxxxxxx |xxxxxxxxxxxxx |xxxxxxxxxxxxx |xxxxxxxxxxxxx |       0.7702 |       0.7702 |       0.7702 |xxxxxxxxxxxxx |xxxxxxxxxxxxx |xxxxxxxxxxxxx |xxxxxxxxxxxxx |       0.7772 |       0.7772 |       0.7772 |xxxxxxxxxxxxx |xxxxxxxxxxxxx |xxxxxxxxxxxxx |xxxxxxxxxxxxx |       0.7679 |       0.7679 |       0.7679 |xxxxxxxxxxxxx |xxxxxxxxxxxxx |xxxxxxxxxxxxx |xxxxxxxxxxxxx |       0.7742 |       0.7742 |       0.7742 |xxxxxxxxxxxxx |xxxxxxxxxxxxx |xxxxxxxxxxxxx |xxxxxxxxxxxxx |       0.7662 |       0.7662 |       0.7662 |xxxxxxxxxxxxx |xxxxxxxxxxxxx |xxxxxxxxxxxxx |xxxxxxxxxxxxx |       0.7781 |       0.7781 |       0.7781 |xxxxxxxxxxxxx |xxxxxxxxxxxxx |xxxxxxxxxxxxx |xxxxxxxxxxxxx |       0.7709 |       0.7709 |       0.7709 |xxxxxxxxxxxxx |xxxxxxxxxxxxx |xxxxxxxxxxxxx |xxxxxxxxxxxxx |       0.7758 |       0.7758 |       0.7758 |xxxxxxxxxxxxx |xxxxxxxxxxxxx |xxxxxxxxxxxxx |xxxxxxxxxxxxx |       0.7692 |       0.7692 |       0.7692 |
bpred_bimod.bpred_jr_rate                   0.9875 |       0.9875 |       0.9875 |xxxxxxxxxxxxx |xxxxxxxxxxxxx |xxxxxxxxxxxxx |xxxxxxxxxxxxx |       0.9886 |       0.9886 |       0.9886 |xxxxxxxxxxxxx |xxxxxxxxxxxxx |xxxxxxxxxxxxx |xxxxxxxxxxxxx |       0.9904 |       0.9904 |       0.9904 |xxxxxxxxxxxxx |xxxxxxxxxxxxx |xxxxxxxxxxxxx |xxxxxxxxxxxxx |       0.9926 |       0.9926 |       0.9926 |xxxxxxxxxxxxx |xxxxxxxxxxxxx |xxxxxxxxxxxxx |xxxxxxxxxxxxx |       0.9950 |       0.9950 |       0.9950 |xxxxxxxxxxxxx |xxxxxxxxxxxxx |xxxxxxxxxxxxx |xxxxxxxxxxxxx |       0.9970 |       0.9970 |       0.9970 |xxxxxxxxxxxxx |xxxxxxxxxxxxx |xxxxxxxxxxxxx |xxxxxxxxxxxxx |       0.9983 |       0.9983 |       0.9983 |xxxxxxxxxxxxx |xxxxxxxxxxxxx |xxxxxxxxxxxxx |xxxxxxxxxxxxx |       0.9991 |       0.9991 |       0.9991 |xxxxxxxxxxxxx |xxxxxxxxxxxxx |xxxxxxxxxxxxx |xxxxxxxxxxxxx |       0.9995 |       0.9995 |       0.9995 |xxxxxxxxxxxxx |xxxxxxxxxxxxx |xxxxxxxxxxxxx |xxxxxxxxxxxxx |       0.9998 |       0.9998 |       0.9998 |xxxxxxxxxxxxx |xxxxxxxxxxxxx |xxxxxxxxxxxxx |xxxxxxxxxxxxx |       0.9999 |       0.9999 |       0.9999 |
bpred_bimod.bpred_jr_non_ras_rate.PP       <error: |      <error: |      <error: |xxxxxxxxxxxxx |xxxxxxxxxxxxx |xxxxxxxxxxxxx |xxxxxxxxxxxxx |      <error: |      <error: |      <error: |xxxxxxxxxxxxx |xxxxxxxxxxxxx |xxxxxxxxxxxxx |xxxxxxxxxxxxx |      <error: |      <error: |      <error: |xxxxxxxxxxxxx |xxxxxxxxxxxxx |xxxxxxxxxxxxx |xxxxxxxxxxxxx |      <error: |      <error: |      <error: |xxxxxxxxxxxxx |xxxxxxxxxxxxx |xxxxxxxxxxxxx |xxxxxxxxxxxxx |      <error: |      <error: |      <error: |xxxxxxxxxxxxx |xxxxxxxxxxxxx |xxxxxxxxxxxxx |xxxxxxxxxxxxx |      <error: |      <error: |      <error: |xxxxxxxxxxxxx |xxxxxxxxxxxxx |xxxxxxxxxxxxx |xxxxxxxxxxxxx |      <error: |      <error: |      <error: |xxxxxxxxxxxxx |xxxxxxxxxxxxx |xxxxxxxxxxxxx |xxxxxxxxxxxxx |       0.0000 |       0.0000 |       0.0000 |xxxxxxxxxxxxx |xxxxxxxxxxxxx |xxxxxxxxxxxxx |xxxxxxxxxxxxx |       0.0000 |       0.0000 |       0.0000 |xxxxxxxxxxxxx |xxxxxxxxxxxxx |xxxxxxxxxxxxx |xxxxxxxxxxxxx |       0.0000 |       0.0000 |       0.0000 |xxxxxxxxxxxxx |xxxxxxxxxxxxx |xxxxxxxxxxxxx |xxxxxxxxxxxxx |       0.0000 |       0.0000 |       0.0000 |
bpred_bimod.retstack_pushes                     82 |           82 |           82 |xxxxxxxxxxxxx |xxxxxxxxxxxxx |xxxxxxxxxxxxx |xxxxxxxxxxxxx |           90 |           90 |           90 |xxxxxxxxxxxxx |xxxxxxxxxxxxx |xxxxxxxxxxxxx |xxxxxxxxxxxxx |          106 |          106 |          106 |xxxxxxxxxxxxx |xxxxxxxxxxxxx |xxxxxxxxxxxxx |xxxxxxxxxxxxx |          138 |          138 |          138 |xxxxxxxxxxxxx |xxxxxxxxxxxxx |xxxxxxxxxxxxx |xxxxxxxxxxxxx |          202 |          202 |          202 |xxxxxxxxxxxxx |xxxxxxxxxxxxx |xxxxxxxxxxxxx |xxxxxxxxxxxxx |          330 |          330 |          330 |xxxxxxxxxxxxx |xxxxxxxxxxxxx |xxxxxxxxxxxxx |xxxxxxxxxxxxx |          586 |          586 |          586 |xxxxxxxxxxxxx |xxxxxxxxxxxxx |xxxxxxxxxxxxx |xxxxxxxxxxxxx |         1102 |         1102 |         1102 |xxxxxxxxxxxxx |xxxxxxxxxxxxx |xxxxxxxxxxxxx |xxxxxxxxxxxxx |         2128 |         2128 |         2128 |xxxxxxxxxxxxx |xxxxxxxxxxxxx |xxxxxxxxxxxxx |xxxxxxxxxxxxx |         4180 |         4180 |         4180 |xxxxxxxxxxxxx |xxxxxxxxxxxxx |xxxxxxxxxxxxx |xxxxxxxxxxxxx |         8284 |         8284 |         8284 |
bpred_bimod.retstack_pops                       80 |           80 |           80 |xxxxxxxxxxxxx |xxxxxxxxxxxxx |xxxxxxxxxxxxx |xxxxxxxxxxxxx |           88 |           88 |           88 |xxxxxxxxxxxxx |xxxxxxxxxxxxx |xxxxxxxxxxxxx |xxxxxxxxxxxxx |          104 |          104 |          104 |xxxxxxxxxxxxx |xxxxxxxxxxxxx |xxxxxxxxxxxxx |xxxxxxxxxxxxx |          136 |          136 |          136 |xxxxxxxxxxxxx |xxxxxxxxxxxxx |xxxxxxxxxxxxx |xxxxxxxxxxxxx |          200 |          200 |          200 |xxxxxxxxxxxxx |xxxxxxxxxxxxx |xxxxxxxxxxxxx |xxxxxxxxxxxxx |          328 |          328 |          328 |xxxxxxxxxxxxx |xxxxxxxxxxxxx |xxxxxxxxxxxxx |xxxxxxxxxxxxx |          584 |          584 |          584 |xxxxxxxxxxxxx |xxxxxxxxxxxxx |xxxxxxxxxxxxx |xxxxxxxxxxxxx |         1100 |         1100 |         1100 |xxxxxxxxxxxxx |xxxxxxxxxxxxx |xxxxxxxxxxxxx |xxxxxxxxxxxxx |         2126 |         2126 |         2126 |xxxxxxxxxxxxx |xxxxxxxxxxxxx |xxxxxxxxxxxxx |xxxxxxxxxxxxx |         4178 |         4178 |         4178 |xxxxxxxxxxxxx |xxxxxxxxxxxxx |xxxxxxxxxxxxx |xxxxxxxxxxxxx |         8282 |         8282 |         8282 |
bpred_bimod.used_ras.PP                         80 |           80 |           80 |xxxxxxxxxxxxx |xxxxxxxxxxxxx |xxxxxxxxxxxxx |xxxxxxxxxxxxx |           88 |           88 |           88 |xxxxxxxxxxxxx |xxxxxxxxxxxxx |xxxxxxxxxxxxx |xxxxxxxxxxxxx |          104 |          104 |          104 |xxxxxxxxxxxxx |xxxxxxxxxxxxx |xxxxxxxxxxxxx |xxxxxxxxxxxxx |          136 |          136 |          136 |xxxxxxxxxxxxx |xxxxxxxxxxxxx |xxxxxxxxxxxxx |xxxxxxxxxxxxx |          200 |          200 |          200 |xxxxxxxxxxxxx |xxxxxxxxxxxxx |xxxxxxxxxxxxx |xxxxxxxxxxxxx |          328 |          328 |          328 |xxxxxxxxxxxxx |xxxxxxxxxxxxx |xxxxxxxxxxxxx |xxxxxxxxxxxxx |          584 |          584 |          584 |xxxxxxxxxxxxx |xxxxxxxxxxxxx |xxxxxxxxxxxxx |xxxxxxxxxxxxx |         1100 |         1100 |         1100 |xxxxxxxxxxxxx |xxxxxxxxxxxxx |xxxxxxxxxxxxx |xxxxxxxxxxxxx |         2126 |         2126 |         2126 |xxxxxxxxxxxxx |xxxxxxxxxxxxx |xxxxxxxxxxxxx |xxxxxxxxxxxxx |         4178 |         4178 |         4178 |xxxxxxxxxxxxx |xxxxxxxxxxxxx |xxxxxxxxxxxxx |xxxxxxxxxxxxx |         8282 |         8282 |         8282 |
bpred_bimod.ras_hits.PP                         79 |           79 |           79 |xxxxxxxxxxxxx |xxxxxxxxxxxxx |xxxxxxxxxxxxx |xxxxxxxxxxxxx |           87 |           87 |           87 |xxxxxxxxxxxxx |xxxxxxxxxxxxx |xxxxxxxxxxxxx |xxxxxxxxxxxxx |          103 |          103 |          103 |xxxxxxxxxxxxx |xxxxxxxxxxxxx |xxxxxxxxxxxxx |xxxxxxxxxxxxx |          135 |          135 |          135 |xxxxxxxxxxxxx |xxxxxxxxxxxxx |xxxxxxxxxxxxx |xxxxxxxxxxxxx |          199 |          199 |          199 |xxxxxxxxxxxxx |xxxxxxxxxxxxx |xxxxxxxxxxxxx |xxxxxxxxxxxxx |          327 |          327 |          327 |xxxxxxxxxxxxx |xxxxxxxxxxxxx |xxxxxxxxxxxxx |xxxxxxxxxxxxx |          583 |          583 |          583 |xxxxxxxxxxxxx |xxxxxxxxxxxxx |xxxxxxxxxxxxx |xxxxxxxxxxxxx |         1100 |         1100 |         1100 |xxxxxxxxxxxxx |xxxxxxxxxxxxx |xxxxxxxxxxxxx |xxxxxxxxxxxxx |         2126 |         2126 |         2126 |xxxxxxxxxxxxx |xxxxxxxxxxxxx |xxxxxxxxxxxxx |xxxxxxxxxxxxx |         4178 |         4178 |         4178 |xxxxxxxxxxxxx |xxxxxxxxxxxxx |xxxxxxxxxxxxx |xxxxxxxxxxxxx |         8282 |         8282 |         8282 |
bpred_bimod.ras_rate.PP                     0.9875 |       0.9875 |       0.9875 |xxxxxxxxxxxxx |xxxxxxxxxxxxx |xxxxxxxxxxxxx |xxxxxxxxxxxxx |       0.9886 |       0.9886 |       0.9886 |xxxxxxxxxxxxx |xxxxxxxxxxxxx |xxxxxxxxxxxxx |xxxxxxxxxxxxx |       0.9904 |       0.9904 |       0.9904 |xxxxxxxxxxxxx |xxxxxxxxxxxxx |xxxxxxxxxxxxx |xxxxxxxxxxxxx |       0.9926 |       0.9926 |       0.9926 |xxxxxxxxxxxxx |xxxxxxxxxxxxx |xxxxxxxxxxxxx |xxxxxxxxxxxxx |       0.9950 |       0.9950 |       0.9950 |xxxxxxxxxxxxx |xxxxxxxxxxxxx |xxxxxxxxxxxxx |xxxxxxxxxxxxx |       0.9970 |       0.9970 |       0.9970 |xxxxxxxxxxxxx |xxxxxxxxxxxxx |xxxxxxxxxxxxx |xxxxxxxxxxxxx |       0.9983 |       0.9983 |       0.9983 |xxxxxxxxxxxxx |xxxxxxxxxxxxx |xxxxxxxxxxxxx |xxxxxxxxxxxxx |       1.0000 |       1.0000 |       1.0000 |xxxxxxxxxxxxx |xxxxxxxxxxxxx |xxxxxxxxxxxxx |xxxxxxxxxxxxx |       1.0000 |       1.0000 |       1.0000 |xxxxxxxxxxxxx |xxxxxxxxxxxxx |xxxxxxxxxxxxx |xxxxxxxxxxxxx |       1.0000 |       1.0000 |       1.0000 |xxxxxxxxxxxxx |xxxxxxxxxxxxx |xxxxxxxxxxxxx |xxxxxxxxxxxxx |       1.0000 |       1.0000 |       1.0000 |
bpred_2lev.lookups                   xxxxxxxxxxxxx |xxxxxxxxxxxxx |xxxxxxxxxxxxx |       112690 |       112690 |       112690 |       112690 |xxxxxxxxxxxxx |xxxxxxxxxxxxx |xxxxxxxxxxxxx |       235895 |       235895 |       235895 |       235895 |xxxxxxxxxxxxx |xxxxxxxxxxxxx |xxxxxxxxxxxxx |       515360 |       515360 |       515360 |       515360 |xxxxxxxxxxxxx |xxxxxxxxxxxxx |xxxxxxxxxxxxx |      1072690 |      1072690 |      1072690 |      1072690 |xxxxxxxxxxxxx |xxxxxxxxxxxxx |xxxxxxxxxxxxx |      2320596 |      2320596 |      2320596 |      2320596 |xxxxxxxxxxxxx |xxxxxxxxxxxxx |xxxxxxxxxxxxx |      4812962 |      4812962 |      4812962 |      4812962 |xxxxxxxxxxxxx |xxxxxxxxxxxxx |xxxxxxxxxxxxx |     10327088 |     10327088 |     10327088 |     10327088 |xxxxxxxxxxxxx |xxxxxxxxxxxxx |xxxxxxxxxxxxx |     21940392 |     21940392 |     21940392 |     21940392 |xxxxxxxxxxxxx |xxxxxxxxxxxxx |xxxxxxxxxxxxx |     46684908 |     46684908 |     46684908 |     46684908 |xxxxxxxxxxxxx |xxxxxxxxxxxxx |xxxxxxxxxxxxx |     96155980 |     96155980 |     96155980 |     96155980 |xxxxxxxxxxxxx |xxxxxxxxxxxxx |xxxxxxxxxxxxx |    203548899 |    203548899 |    203548899 |    203548899 |
[...]
bpred_2lev.retstack_pushes           xxxxxxxxxxxxx |xxxxxxxxxxxxx |xxxxxxxxxxxxx |           82 |           82 |           82 |           82 |xxxxxxxxxxxxx |xxxxxxxxxxxxx |xxxxxxxxxxxxx |           90 |           90 |           90 |           90 |xxxxxxxxxxxxx |xxxxxxxxxxxxx |xxxxxxxxxxxxx |          106 |          106 |          106 |          106 |xxxxxxxxxxxxx |xxxxxxxxxxxxx |xxxxxxxxxxxxx |          138 |          138 |          138 |          138 |xxxxxxxxxxxxx |xxxxxxxxxxxxx |xxxxxxxxxxxxx |          202 |          202 |          202 |          202 |xxxxxxxxxxxxx |xxxxxxxxxxxxx |xxxxxxxxxxxxx |          330 |          330 |          330 |          330 |xxxxxxxxxxxxx |xxxxxxxxxxxxx |xxxxxxxxxxxxx |          586 |          586 |          586 |          586 |xxxxxxxxxxxxx |xxxxxxxxxxxxx |xxxxxxxxxxxxx |         1102 |         1102 |         1102 |         1102 |xxxxxxxxxxxxx |xxxxxxxxxxxxx |xxxxxxxxxxxxx |         2128 |         2128 |         2128 |         2128 |xxxxxxxxxxxxx |xxxxxxxxxxxxx |xxxxxxxxxxxxx |         4180 |         4180 |         4180 |         4180 |xxxxxxxxxxxxx |xxxxxxxxxxxxx |xxxxxxxxxxxxx |         8284 |         8284 |         8284 |         8284 |
bpred_2lev.retstack_pops             xxxxxxxxxxxxx |xxxxxxxxxxxxx |xxxxxxxxxxxxx |           80 |           80 |           80 |           80 |xxxxxxxxxxxxx |xxxxxxxxxxxxx |xxxxxxxxxxxxx |           88 |           88 |           88 |           88 |xxxxxxxxxxxxx |xxxxxxxxxxxxx |xxxxxxxxxxxxx |          104 |          104 |          104 |          104 |xxxxxxxxxxxxx |xxxxxxxxxxxxx |xxxxxxxxxxxxx |          136 |          136 |          136 |          136 |xxxxxxxxxxxxx |xxxxxxxxxxxxx |xxxxxxxxxxxxx |          200 |          200 |          200 |          200 |xxxxxxxxxxxxx |xxxxxxxxxxxxx |xxxxxxxxxxxxx |          328 |          328 |          328 |          328 |xxxxxxxxxxxxx |xxxxxxxxxxxxx |xxxxxxxxxxxxx |          584 |          584 |          584 |          584 |xxxxxxxxxxxxx |xxxxxxxxxxxxx |xxxxxxxxxxxxx |         1100 |         1100 |         1100 |         1100 |xxxxxxxxxxxxx |xxxxxxxxxxxxx |xxxxxxxxxxxxx |         2126 |         2126 |         2126 |         2126 |xxxxxxxxxxxxx |xxxxxxxxxxxxx |xxxxxxxxxxxxx |         4178 |         4178 |         4178 |         4178 |xxxxxxxxxxxxx |xxxxxxxxxxxxx |xxxxxxxxxxxxx |         8282 |         8282 |         8282 |         8282 |
bpred_2lev.used_ras.PP               xxxxxxxxxxxxx |xxxxxxxxxxxxx |xxxxxxxxxxxxx |           80 |           80 |           80 |           80 |xxxxxxxxxxxxx |xxxxxxxxxxxxx |xxxxxxxxxxxxx |           88 |           88 |           88 |           88 |xxxxxxxxxxxxx |xxxxxxxxxxxxx |xxxxxxxxxxxxx |          104 |          104 |          104 |          104 |xxxxxxxxxxxxx |xxxxxxxxxxxxx |xxxxxxxxxxxxx |          136 |          136 |          136 |          136 |xxxxxxxxxxxxx |xxxxxxxxxxxxx |xxxxxxxxxxxxx |          200 |          200 |          200 |          200 |xxxxxxxxxxxxx |xxxxxxxxxxxxx |xxxxxxxxxxxxx |          328 |          328 |          328 |          328 |xxxxxxxxxxxxx |xxxxxxxxxxxxx |xxxxxxxxxxxxx |          584 |          584 |          584 |          584 |xxxxxxxxxxxxx |xxxxxxxxxxxxx |xxxxxxxxxxxxx |         1100 |         1100 |         1100 |         1100 |xxxxxxxxxxxxx |xxxxxxxxxxxxx |xxxxxxxxxxxxx |         2126 |         2126 |         2126 |         2126 |xxxxxxxxxxxxx |xxxxxxxxxxxxx |xxxxxxxxxxxxx |         4178 |         4178 |         4178 |         4178 |xxxxxxxxxxxxx |xxxxxxxxxxxxx |xxxxxxxxxxxxx |         8282 |         8282 |         8282 |         8282 |
bpred_2lev.ras_hits.PP               xxxxxxxxxxxxx |xxxxxxxxxxxxx |xxxxxxxxxxxxx |           79 |           79 |           79 |           79 |xxxxxxxxxxxxx |xxxxxxxxxxxxx |xxxxxxxxxxxxx |           87 |           87 |           87 |           87 |xxxxxxxxxxxxx |xxxxxxxxxxxxx |xxxxxxxxxxxxx |          103 |          103 |          103 |          103 |xxxxxxxxxxxxx |xxxxxxxxxxxxx |xxxxxxxxxxxxx |          135 |          135 |          135 |          135 |xxxxxxxxxxxxx |xxxxxxxxxxxxx |xxxxxxxxxxxxx |          199 |          199 |          199 |          199 |xxxxxxxxxxxxx |xxxxxxxxxxxxx |xxxxxxxxxxxxx |          327 |          327 |          327 |          327 |xxxxxxxxxxxxx |xxxxxxxxxxxxx |xxxxxxxxxxxxx |          583 |          583 |          583 |          583 |xxxxxxxxxxxxx |xxxxxxxxxxxxx |xxxxxxxxxxxxx |         1100 |         1100 |         1100 |         1100 |xxxxxxxxxxxxx |xxxxxxxxxxxxx |xxxxxxxxxxxxx |         2126 |         2126 |         2126 |         2126 |xxxxxxxxxxxxx |xxxxxxxxxxxxx |xxxxxxxxxxxxx |         4178 |         4178 |         4178 |         4178 |xxxxxxxxxxxxx |xxxxxxxxxxxxx |xxxxxxxxxxxxx |         8282 |         8282 |         8282 |         8282 |
bpred_2lev.ras_rate.PP               xxxxxxxxxxxxx |xxxxxxxxxxxxx |xxxxxxxxxxxxx |       0.9875 |       0.9875 |       0.9875 |       0.9875 |xxxxxxxxxxxxx |xxxxxxxxxxxxx |xxxxxxxxxxxxx |       0.9886 |       0.9886 |       0.9886 |       0.9886 |xxxxxxxxxxxxx |xxxxxxxxxxxxx |xxxxxxxxxxxxx |       0.9904 |       0.9904 |       0.9904 |       0.9904 |xxxxxxxxxxxxx |xxxxxxxxxxxxx |xxxxxxxxxxxxx |       0.9926 |       0.9926 |       0.9926 |       0.9926 |xxxxxxxxxxxxx |xxxxxxxxxxxxx |xxxxxxxxxxxxx |       0.9950 |       0.9950 |       0.9950 |       0.9950 |xxxxxxxxxxxxx |xxxxxxxxxxxxx |xxxxxxxxxxxxx |       0.9970 |       0.9970 |       0.9970 |       0.9970 |xxxxxxxxxxxxx |xxxxxxxxxxxxx |xxxxxxxxxxxxx |       0.9983 |       0.9983 |       0.9983 |       0.9983 |xxxxxxxxxxxxx |xxxxxxxxxxxxx |xxxxxxxxxxxxx |       1.0000 |       1.0000 |       1.0000 |       1.0000 |xxxxxxxxxxxxx |xxxxxxxxxxxxx |xxxxxxxxxxxxx |       1.0000 |       1.0000 |       1.0000 |       1.0000 |xxxxxxxxxxxxx |xxxxxxxxxxxxx |xxxxxxxxxxxxx |       1.0000 |       1.0000 |       1.0000 |       1.0000 |xxxxxxxxxxxxx |xxxxxxxxxxxxx |xxxxxxxxxxxxx |       1.0000 |       1.0000 |       1.0000 |       1.0000 |

Command list: 
	sslittle-na-sstrix-gcc -Wall -O3 -funroll-loops -finline-functions  -DRANDOM_SIZE=4096 -DOFFSET=9 -DSORT=tiled_mergesort sorts/tiled_mergesort354262698.c simpleMain.c -o tiled_mergesort673130371
	sim-cache -cache:dl1 dl1:256:32:1:l -cache:dl2 dl2:131072:32:1:l -cache:il1 il1:256:32:1:l -cache:il2 dl2 tiled_mergesort673130371
	sim-cache -cache:dl1 dl1:256:32:1:l -cache:dl2 dl2:65536:32:1:l -cache:il1 il1:256:32:1:l -cache:il2 dl2 tiled_mergesort673130371
	sim-cache -cache:dl1 dl1:1:32:256:l -cache:dl2 dl2:1:32:131072:l -cache:il1 il1:1:32:256:l -cache:il2 dl2 tiled_mergesort673130371
	sim-cache -cache:dl1 dl1:1:32:256:l -cache:dl2 dl2:1:32:65536:l -cache:il1 il1:1:32:256:l -cache:il2 dl2 tiled_mergesort673130371
	sim-bpred -bpred bimod -bpred:bimod 512 tiled_mergesort673130371
	sim-bpred -bpred bimod -bpred:bimod 1024 tiled_mergesort673130371
	sim-bpred -bpred bimod -bpred:bimod 2048 tiled_mergesort673130371
	sim-bpred -bpred 2lev -bpred:2lev 1 512 10 1 tiled_mergesort673130371
	sim-bpred -bpred 2lev -bpred:2lev 1 1024 10 1 tiled_mergesort673130371
	sim-bpred -bpred 2lev -bpred:2lev 1 2048 10 1 tiled_mergesort673130371
	sim-bpred -bpred 2lev -bpred:2lev 1 4096 10 1 tiled_mergesort673130371
	sslittle-na-sstrix-gcc -Wall -O3 -funroll-loops -finline-functions  -DRANDOM_SIZE=8192 -DOFFSET=9 -DSORT=tiled_mergesort sorts/tiled_mergesort354262698.c simpleMain.c -o tiled_mergesort673130371
	sim-cache -cache:dl1 dl1:256:32:1:l -cache:dl2 dl2:131072:32:1:l -cache:il1 il1:256:32:1:l -cache:il2 dl2 tiled_mergesort673130371
	sim-cache -cache:dl1 dl1:256:32:1:l -cache:dl2 dl2:65536:32:1:l -cache:il1 il1:256:32:1:l -cache:il2 dl2 tiled_mergesort673130371
	sim-cache -cache:dl1 dl1:1:32:256:l -cache:dl2 dl2:1:32:131072:l -cache:il1 il1:1:32:256:l -cache:il2 dl2 tiled_mergesort673130371
	sim-cache -cache:dl1 dl1:1:32:256:l -cache:dl2 dl2:1:32:65536:l -cache:il1 il1:1:32:256:l -cache:il2 dl2 tiled_mergesort673130371
	sim-bpred -bpred bimod -bpred:bimod 512 tiled_mergesort673130371
	sim-bpred -bpred bimod -bpred:bimod 1024 tiled_mergesort673130371
	sim-bpred -bpred bimod -bpred:bimod 2048 tiled_mergesort673130371
	sim-bpred -bpred 2lev -bpred:2lev 1 512 10 1 tiled_mergesort673130371
	sim-bpred -bpred 2lev -bpred:2lev 1 1024 10 1 tiled_mergesort673130371
	sim-bpred -bpred 2lev -bpred:2lev 1 2048 10 1 tiled_mergesort673130371
	sim-bpred -bpred 2lev -bpred:2lev 1 4096 10 1 tiled_mergesort673130371
	sslittle-na-sstrix-gcc -Wall -O3 -funroll-loops -finline-functions  -DRANDOM_SIZE=16384 -DOFFSET=9 -DSORT=tiled_mergesort sorts/tiled_mergesort354262698.c simpleMain.c -o tiled_mergesort673130371
	sim-cache -cache:dl1 dl1:256:32:1:l -cache:dl2 dl2:131072:32:1:l -cache:il1 il1:256:32:1:l -cache:il2 dl2 tiled_mergesort673130371
	sim-cache -cache:dl1 dl1:256:32:1:l -cache:dl2 dl2:65536:32:1:l -cache:il1 il1:256:32:1:l -cache:il2 dl2 tiled_mergesort673130371
	sim-cache -cache:dl1 dl1:1:32:256:l -cache:dl2 dl2:1:32:131072:l -cache:il1 il1:1:32:256:l -cache:il2 dl2 tiled_mergesort673130371
	sim-cache -cache:dl1 dl1:1:32:256:l -cache:dl2 dl2:1:32:65536:l -cache:il1 il1:1:32:256:l -cache:il2 dl2 tiled_mergesort673130371
	sim-bpred -bpred bimod -bpred:bimod 512 tiled_mergesort673130371
	sim-bpred -bpred bimod -bpred:bimod 1024 tiled_mergesort673130371
	sim-bpred -bpred bimod -bpred:bimod 2048 tiled_mergesort673130371
	sim-bpred -bpred 2lev -bpred:2lev 1 512 10 1 tiled_mergesort673130371
	sim-bpred -bpred 2lev -bpred:2lev 1 1024 10 1 tiled_mergesort673130371
	sim-bpred -bpred 2lev -bpred:2lev 1 2048 10 1 tiled_mergesort673130371
	sim-bpred -bpred 2lev -bpred:2lev 1 4096 10 1 tiled_mergesort673130371
	sslittle-na-sstrix-gcc -Wall -O3 -funroll-loops -finline-functions  -DRANDOM_SIZE=32768 -DOFFSET=9 -DSORT=tiled_mergesort sorts/tiled_mergesort354262698.c simpleMain.c -o tiled_mergesort673130371
	sim-cache -cache:dl1 dl1:256:32:1:l -cache:dl2 dl2:131072:32:1:l -cache:il1 il1:256:32:1:l -cache:il2 dl2 tiled_mergesort673130371
	sim-cache -cache:dl1 dl1:256:32:1:l -cache:dl2 dl2:65536:32:1:l -cache:il1 il1:256:32:1:l -cache:il2 dl2 tiled_mergesort673130371
	sim-cache -cache:dl1 dl1:1:32:256:l -cache:dl2 dl2:1:32:131072:l -cache:il1 il1:1:32:256:l -cache:il2 dl2 tiled_mergesort673130371
	sim-cache -cache:dl1 dl1:1:32:256:l -cache:dl2 dl2:1:32:65536:l -cache:il1 il1:1:32:256:l -cache:il2 dl2 tiled_mergesort673130371
	sim-bpred -bpred bimod -bpred:bimod 512 tiled_mergesort673130371
	sim-bpred -bpred bimod -bpred:bimod 1024 tiled_mergesort673130371
	sim-bpred -bpred bimod -bpred:bimod 2048 tiled_mergesort673130371
	sim-bpred -bpred 2lev -bpred:2lev 1 512 10 1 tiled_mergesort673130371
	sim-bpred -bpred 2lev -bpred:2lev 1 1024 10 1 tiled_mergesort673130371
	sim-bpred -bpred 2lev -bpred:2lev 1 2048 10 1 tiled_mergesort673130371
	sim-bpred -bpred 2lev -bpred:2lev 1 4096 10 1 tiled_mergesort673130371
	sslittle-na-sstrix-gcc -Wall -O3 -funroll-loops -finline-functions  -DRANDOM_SIZE=65536 -DOFFSET=9 -DSORT=tiled_mergesort sorts/tiled_mergesort354262698.c simpleMain.c -o tiled_mergesort673130371
	sim-cache -cache:dl1 dl1:256:32:1:l -cache:dl2 dl2:131072:32:1:l -cache:il1 il1:256:32:1:l -cache:il2 dl2 tiled_mergesort673130371
	sim-cache -cache:dl1 dl1:256:32:1:l -cache:dl2 dl2:65536:32:1:l -cache:il1 il1:256:32:1:l -cache:il2 dl2 tiled_mergesort673130371
	sim-cache -cache:dl1 dl1:1:32:256:l -cache:dl2 dl2:1:32:131072:l -cache:il1 il1:1:32:256:l -cache:il2 dl2 tiled_mergesort673130371
	sim-cache -cache:dl1 dl1:1:32:256:l -cache:dl2 dl2:1:32:65536:l -cache:il1 il1:1:32:256:l -cache:il2 dl2 tiled_mergesort673130371
	sim-bpred -bpred bimod -bpred:bimod 512 tiled_mergesort673130371
	sim-bpred -bpred bimod -bpred:bimod 1024 tiled_mergesort673130371
	sim-bpred -bpred bimod -bpred:bimod 2048 tiled_mergesort673130371
	sim-bpred -bpred 2lev -bpred:2lev 1 512 10 1 tiled_mergesort673130371
	sim-bpred -bpred 2lev -bpred:2lev 1 1024 10 1 tiled_mergesort673130371
	sim-bpred -bpred 2lev -bpred:2lev 1 2048 10 1 tiled_mergesort673130371
	sim-bpred -bpred 2lev -bpred:2lev 1 4096 10 1 tiled_mergesort673130371
	sslittle-na-sstrix-gcc -Wall -O3 -funroll-loops -finline-functions  -DRANDOM_SIZE=131072 -DOFFSET=9 -DSORT=tiled_mergesort sorts/tiled_mergesort354262698.c simpleMain.c -o tiled_mergesort673130371
	sim-cache -cache:dl1 dl1:256:32:1:l -cache:dl2 dl2:131072:32:1:l -cache:il1 il1:256:32:1:l -cache:il2 dl2 tiled_mergesort673130371
	sim-cache -cache:dl1 dl1:256:32:1:l -cache:dl2 dl2:65536:32:1:l -cache:il1 il1:256:32:1:l -cache:il2 dl2 tiled_mergesort673130371
	sim-cache -cache:dl1 dl1:1:32:256:l -cache:dl2 dl2:1:32:131072:l -cache:il1 il1:1:32:256:l -cache:il2 dl2 tiled_mergesort673130371
	sim-cache -cache:dl1 dl1:1:32:256:l -cache:dl2 dl2:1:32:65536:l -cache:il1 il1:1:32:256:l -cache:il2 dl2 tiled_mergesort673130371
	sim-bpred -bpred bimod -bpred:bimod 512 tiled_mergesort673130371
	sim-bpred -bpred bimod -bpred:bimod 1024 tiled_mergesort673130371
	sim-bpred -bpred bimod -bpred:bimod 2048 tiled_mergesort673130371
	sim-bpred -bpred 2lev -bpred:2lev 1 512 10 1 tiled_mergesort673130371
	sim-bpred -bpred 2lev -bpred:2lev 1 1024 10 1 tiled_mergesort673130371
	sim-bpred -bpred 2lev -bpred:2lev 1 2048 10 1 tiled_mergesort673130371
	sim-bpred -bpred 2lev -bpred:2lev 1 4096 10 1 tiled_mergesort673130371
	sslittle-na-sstrix-gcc -Wall -O3 -funroll-loops -finline-functions  -DRANDOM_SIZE=262144 -DOFFSET=9 -DSORT=tiled_mergesort sorts/tiled_mergesort354262698.c simpleMain.c -o tiled_mergesort673130371
	sim-cache -cache:dl1 dl1:256:32:1:l -cache:dl2 dl2:131072:32:1:l -cache:il1 il1:256:32:1:l -cache:il2 dl2 tiled_mergesort673130371
	sim-cache -cache:dl1 dl1:256:32:1:l -cache:dl2 dl2:65536:32:1:l -cache:il1 il1:256:32:1:l -cache:il2 dl2 tiled_mergesort673130371
	sim-cache -cache:dl1 dl1:1:32:256:l -cache:dl2 dl2:1:32:131072:l -cache:il1 il1:1:32:256:l -cache:il2 dl2 tiled_mergesort673130371
	sim-cache -cache:dl1 dl1:1:32:256:l -cache:dl2 dl2:1:32:65536:l -cache:il1 il1:1:32:256:l -cache:il2 dl2 tiled_mergesort673130371
	sim-bpred -bpred bimod -bpred:bimod 512 tiled_mergesort673130371
	sim-bpred -bpred bimod -bpred:bimod 1024 tiled_mergesort673130371
	sim-bpred -bpred bimod -bpred:bimod 2048 tiled_mergesort673130371
	sim-bpred -bpred 2lev -bpred:2lev 1 512 10 1 tiled_mergesort673130371
	sim-bpred -bpred 2lev -bpred:2lev 1 1024 10 1 tiled_mergesort673130371
	sim-bpred -bpred 2lev -bpred:2lev 1 2048 10 1 tiled_mergesort673130371
	sim-bpred -bpred 2lev -bpred:2lev 1 4096 10 1 tiled_mergesort673130371
	sslittle-na-sstrix-gcc -Wall -O3 -funroll-loops -finline-functions  -DRANDOM_SIZE=524288 -DOFFSET=9 -DSORT=tiled_mergesort sorts/tiled_mergesort354262698.c simpleMain.c -o tiled_mergesort673130371
	sim-cache -cache:dl1 dl1:256:32:1:l -cache:dl2 dl2:131072:32:1:l -cache:il1 il1:256:32:1:l -cache:il2 dl2 tiled_mergesort673130371
	sim-cache -cache:dl1 dl1:256:32:1:l -cache:dl2 dl2:65536:32:1:l -cache:il1 il1:256:32:1:l -cache:il2 dl2 tiled_mergesort673130371
	sim-cache -cache:dl1 dl1:1:32:256:l -cache:dl2 dl2:1:32:131072:l -cache:il1 il1:1:32:256:l -cache:il2 dl2 tiled_mergesort673130371
	sim-cache -cache:dl1 dl1:1:32:256:l -cache:dl2 dl2:1:32:65536:l -cache:il1 il1:1:32:256:l -cache:il2 dl2 tiled_mergesort673130371
	sim-bpred -bpred bimod -bpred:bimod 512 tiled_mergesort673130371
	sim-bpred -bpred bimod -bpred:bimod 1024 tiled_mergesort673130371
	sim-bpred -bpred bimod -bpred:bimod 2048 tiled_mergesort673130371
	sim-bpred -bpred 2lev -bpred:2lev 1 512 10 1 tiled_mergesort673130371
	sim-bpred -bpred 2lev -bpred:2lev 1 1024 10 1 tiled_mergesort673130371
	sim-bpred -bpred 2lev -bpred:2lev 1 2048 10 1 tiled_mergesort673130371
	sim-bpred -bpred 2lev -bpred:2lev 1 4096 10 1 tiled_mergesort673130371
	sslittle-na-sstrix-gcc -Wall -O3 -funroll-loops -finline-functions  -DRANDOM_SIZE=1048576 -DOFFSET=9 -DSORT=tiled_mergesort sorts/tiled_mergesort354262698.c simpleMain.c -o tiled_mergesort673130371
	sim-cache -cache:dl1 dl1:256:32:1:l -cache:dl2 dl2:131072:32:1:l -cache:il1 il1:256:32:1:l -cache:il2 dl2 tiled_mergesort673130371
	sim-cache -cache:dl1 dl1:256:32:1:l -cache:dl2 dl2:65536:32:1:l -cache:il1 il1:256:32:1:l -cache:il2 dl2 tiled_mergesort673130371
	sim-cache -cache:dl1 dl1:1:32:256:l -cache:dl2 dl2:1:32:131072:l -cache:il1 il1:1:32:256:l -cache:il2 dl2 tiled_mergesort673130371
	sim-cache -cache:dl1 dl1:1:32:256:l -cache:dl2 dl2:1:32:65536:l -cache:il1 il1:1:32:256:l -cache:il2 dl2 tiled_mergesort673130371
	sim-bpred -bpred bimod -bpred:bimod 512 tiled_mergesort673130371
	sim-bpred -bpred bimod -bpred:bimod 1024 tiled_mergesort673130371
	sim-bpred -bpred bimod -bpred:bimod 2048 tiled_mergesort673130371
	sim-bpred -bpred 2lev -bpred:2lev 1 512 10 1 tiled_mergesort673130371
	sim-bpred -bpred 2lev -bpred:2lev 1 1024 10 1 tiled_mergesort673130371
	sim-bpred -bpred 2lev -bpred:2lev 1 2048 10 1 tiled_mergesort673130371
	sim-bpred -bpred 2lev -bpred:2lev 1 4096 10 1 tiled_mergesort673130371
	sslittle-na-sstrix-gcc -Wall -O3 -funroll-loops -finline-functions  -DRANDOM_SIZE=2097152 -DOFFSET=9 -DSORT=tiled_mergesort sorts/tiled_mergesort354262698.c simpleMain.c -o tiled_mergesort673130371
	sim-cache -cache:dl1 dl1:256:32:1:l -cache:dl2 dl2:131072:32:1:l -cache:il1 il1:256:32:1:l -cache:il2 dl2 tiled_mergesort673130371
	sim-cache -cache:dl1 dl1:256:32:1:l -cache:dl2 dl2:65536:32:1:l -cache:il1 il1:256:32:1:l -cache:il2 dl2 tiled_mergesort673130371
	sim-cache -cache:dl1 dl1:1:32:256:l -cache:dl2 dl2:1:32:131072:l -cache:il1 il1:1:32:256:l -cache:il2 dl2 tiled_mergesort673130371
	sim-cache -cache:dl1 dl1:1:32:256:l -cache:dl2 dl2:1:32:65536:l -cache:il1 il1:1:32:256:l -cache:il2 dl2 tiled_mergesort673130371
	sim-bpred -bpred bimod -bpred:bimod 512 tiled_mergesort673130371
	sim-bpred -bpred bimod -bpred:bimod 1024 tiled_mergesort673130371
	sim-bpred -bpred bimod -bpred:bimod 2048 tiled_mergesort673130371
	sim-bpred -bpred 2lev -bpred:2lev 1 512 10 1 tiled_mergesort673130371
	sim-bpred -bpred 2lev -bpred:2lev 1 1024 10 1 tiled_mergesort673130371
	sim-bpred -bpred 2lev -bpred:2lev 1 2048 10 1 tiled_mergesort673130371
	sim-bpred -bpred 2lev -bpred:2lev 1 4096 10 1 tiled_mergesort673130371
	sslittle-na-sstrix-gcc -Wall -O3 -funroll-loops -finline-functions  -DRANDOM_SIZE=4194304 -DOFFSET=9 -DSORT=tiled_mergesort sorts/tiled_mergesort354262698.c simpleMain.c -o tiled_mergesort673130371
	sim-cache -cache:dl1 dl1:256:32:1:l -cache:dl2 dl2:131072:32:1:l -cache:il1 il1:256:32:1:l -cache:il2 dl2 tiled_mergesort673130371
	sim-cache -cache:dl1 dl1:256:32:1:l -cache:dl2 dl2:65536:32:1:l -cache:il1 il1:256:32:1:l -cache:il2 dl2 tiled_mergesort673130371
	sim-cache -cache:dl1 dl1:1:32:256:l -cache:dl2 dl2:1:32:131072:l -cache:il1 il1:1:32:256:l -cache:il2 dl2 tiled_mergesort673130371
	sim-cache -cache:dl1 dl1:1:32:256:l -cache:dl2 dl2:1:32:65536:l -cache:il1 il1:1:32:256:l -cache:il2 dl2 tiled_mergesort673130371
	sim-bpred -bpred bimod -bpred:bimod 512 tiled_mergesort673130371
	sim-bpred -bpred bimod -bpred:bimod 1024 tiled_mergesort673130371
	sim-bpred -bpred bimod -bpred:bimod 2048 tiled_mergesort673130371
	sim-bpred -bpred 2lev -bpred:2lev 1 512 10 1 tiled_mergesort673130371
	sim-bpred -bpred 2lev -bpred:2lev 1 1024 10 1 tiled_mergesort673130371
	sim-bpred -bpred 2lev -bpred:2lev 1 2048 10 1 tiled_mergesort673130371
	sim-bpred -bpred 2lev -bpred:2lev 1 4096 10 1 tiled_mergesort673130371
