#set_size_in_keys sim_num_insn sim_num_refs sim_elapsed_time sim_inst_rate il1.accesses il1.hits il1.misses il1.replacements il1.writebacks il1.invalidations il1.miss_rate il1.repl_rate il1.wb_rate il1.inv_rate dl1.accesses dl1.hits dl1.misses dl1.replacements dl1.writebacks dl1.invalidations dl1.miss_rate dl1.repl_rate dl1.wb_rate dl1.inv_rate dl2.accesses dl2.hits dl2.misses dl2.replacements dl2.writebacks dl2.invalidations dl2.miss_rate dl2.repl_rate dl2.wb_rate dl2.inv_rate itlb.accesses itlb.hits itlb.misses itlb.replacements itlb.writebacks itlb.invalidations itlb.miss_rate itlb.repl_rate itlb.wb_rate itlb.inv_rate dtlb.accesses dtlb.hits dtlb.misses dtlb.replacements dtlb.writebacks dtlb.invalidations dtlb.miss_rate dtlb.repl_rate dtlb.wb_rate dtlb.inv_rate ld_text_base ld_text_size ld_data_base ld_data_size ld_stack_base ld_stack_size ld_prog_entry ld_environ_base ld_target_big_endian mem.page_count mem.page_mem mem.ptab_misses mem.ptab_accesses mem.ptab_miss_rate
4096 114.7080078125 30.536376953125 0.001708984375 67120.5714 114.7080078125 114.6064453125 0.1015625 0.0390625 0 0 0.0009 0.0003 0.0000 0.0000 34.555908203125 33.85205078125 0.703857421875 0.641357421875 0.60888671875 0 0.0204 0.0186 0.0176 0.0000 1.414306640625 1.08447265625 0.329833984375 0 0 0 0.2332 0.0000 0.0000 0.0000 114.7080078125 114.70556640625 0.00244140625 0 0 0 0.0000 0.0000 0.0000 0.0000 34.555908203125 34.552978515625 0.0029296875 0 0 0 0.0001 0.0000 0.0000 0.0000 0x00400000 18.5390625 0x10000000 2.0166015625 0x7fffc000 4 0x00400140 0x7fff8000 0 0.007568359375 124k 0.007568359375 642.8515625 0.0000 
8192 125.51171875 32.5897216796875 0.0013427734375 93472.0000 125.51171875 125.460815429688 0.0509033203125 0.0196533203125 0 0 0.0004 0.0002 0.0000 0.0000 36.5994873046875 35.8114013671875 0.7880859375 0.7568359375 0.6927490234375 0 0.0215 0.0207 0.0189 0.0000 1.53173828125 1.30419921875 0.2275390625 0 0 0 0.1485 0.0000 0.0000 0.0000 125.51171875 125.510498046875 0.001220703125 0 0 0 0.0000 0.0000 0.0000 0.0000 36.5994873046875 36.5975341796875 0.001953125 0 0 0 0.0001 0.0000 0.0000 0.0000 0x00400000 9.2734375 0x10000000 1.00830078125 0x7fffc000 2 0x00400140 0x7fff8000 0 0.0042724609375 140k 0.0042724609375 632.72314453125 0.0000 
16384 133.111877441406 34.3187255859375 0.0009765625 136306.5625 133.111877441406 133.086242675781 0.025634765625 0.010009765625 0 0 0.0002 0.0001 0.0000 0.0000 38.3236083984375 37.4512939453125 0.872314453125 0.856689453125 0.8092041015625 0 0.0228 0.0224 0.0211 0.0000 1.7071533203125 1.5311279296875 0.176025390625 0 0 0 0.1031 0.0000 0.0000 0.0000 133.111877441406 133.111267089844 0.0006103515625 0 0 0 0.0000 0.0000 0.0000 0.0000 38.3236083984375 38.3221435546875 0.00146484375 0 0 0 0.0000 0.0000 0.0000 0.0000 0x00400000 4.6376953125 0x10000000 0.504150390625 0x7fffc000 1 0x00400140 0x7fff8000 0 0.00262451171875 172k 0.00262451171875 637.839233398438 0.0000 
32768 143.474914550781 36.4635925292969 0.000823974609375 174125.4074 143.474914550781 143.462158203125 0.01275634765625 0.00494384765625 0 0 0.0001 0.0000 0.0000 0.0000 40.4660339355469 39.42431640625 1.04171752929688 1.03390502929688 0.959503173828125 0 0.0257 0.0255 0.0237 0.0000 2.01397705078125 1.86355590820312 0.150421142578125 0 0 0 0.0747 0.0000 0.0000 0.0000 143.474914550781 143.474609375 0.00030517578125 0 0 0 0.0000 0.0000 0.0000 0.0000 40.4660339355469 40.4648132324219 0.001220703125 0 0 0 0.0000 0.0000 0.0000 0.0000 0x00400000 2.3193359375 0x10000000 0.2520751953125 0x7fffc000 0.5 0x00400140 0x7fff8000 0 0.001800537109375 236k 0.001800537109375 669.206909179688 0.0000 
65536 153.65022277832 38.7734375 0.000762939453125 201392.4200 153.65022277832 153.643844604492 0.006378173828125 0.002471923828125 0 0 0.0000 0.0000 0.0000 0.0000 42.774658203125 41.5738220214844 1.20083618164062 1.19692993164062 1.07460021972656 0 0.0281 0.0280 0.0251 0.0000 2.28181457519531 2.14408874511719 0.137725830078125 0 0 0 0.0604 0.0000 0.0000 0.0000 153.65022277832 153.65007019043 0.000152587890625 0 0 0 0.0000 0.0000 0.0000 0.0000 42.774658203125 42.7735595703125 0.0010986328125 0 0 0 0.0000 0.0000 0.0000 0.0000 0x00400000 1.15966796875 0x10000000 0.12603759765625 0x7fffc000 0.25 0x00400140 0x7fff8000 0 0.0013885498046875 364k 0.0013885498046875 707.337799072266 0.0000 
131072 159.424621582031 40.3572616577148 0.00070953369140625 224689.2903 159.424621582031 159.421432495117 0.0031890869140625 0.0012359619140625 0 0 0.0000 0.0000 0.0000 0.0000 44.3578720092773 43.09765625 1.26021575927734 1.25826263427734 1.18448638916016 0 0.0284 0.0284 0.0267 0.0000 2.44789123535156 2.3165283203125 0.131362915039062 0 0 0 0.0537 0.0000 0.0000 0.0000 159.424621582031 159.424545288086 7.62939453125e-05 0 0 0 0.0000 0.0000 0.0000 0.0000 44.3578720092773 44.3565292358398 0.0013427734375 0.0003662109375 0.0003509521484375 0 0.0000 0.0000 0.0000 0.0000 0x00400000 0.579833984375 0x10000000 0.063018798828125 0x7fffc000 0.125 0x00400140 0x7fff8000 0 0.00118255615234375 620k 0.00118255615234375 730.008026123047 0.0000 
262144 172.781478881836 43.0583076477051 0.000659942626953125 261812.8786 172.781478881836 172.779884338379 0.00159454345703125 0.00061798095703125 0 0 0.0000 0.0000 0.0000 0.0000 47.0586128234863 45.550651550293 1.50796127319336 1.50698471069336 1.36065292358398 0 0.0320 0.0320 0.0289 0.0000 2.87020874023438 2.74202728271484 0.128181457519531 0 0 0 0.0447 0.0000 0.0000 0.0000 172.781478881836 172.781440734863 3.814697265625e-05 0 0 0 0.0000 0.0000 0.0000 0.0000 47.0586128234863 47.0544281005859 0.00418472290039062 0.00369644165039062 0.00368881225585938 0 0.0001 0.0001 0.0001 0.0000 0x00400000 0.2899169921875 0x10000000 0.0315093994140625 0x7fffc000 0.0625 0x00400140 0x7fff8000 0 0.00107955932617188 1132k 0.00107955932617188 787.0400390625 0.0000 
524288 180.516159057617 45.0041370391846 0.000566482543945312 318661.4680 180.516159057617 180.515361785889 0.000797271728515625 0.000308990478515625 0 0 0.0000 0.0000 0.0000 0.0000 49.0042896270752 47.3809642791748 1.62332534790039 1.62283706665039 1.47698974609375 0 0.0331 0.0331 0.0301 0.0000 3.10111236572266 2.97452163696289 0.126590728759766 0 0 0 0.0408 0.0000 0.0000 0.0000 180.516159057617 180.516139984131 1.9073486328125e-05 0 0 0 0.0000 0.0000 0.0000 0.0000 49.0042896270752 48.9989929199219 0.00529670715332031 0.00505256652832031 0.00504875183105469 0 0.0001 0.0001 0.0001 0.0000 0x00400000 0.14495849609375 0x10000000 0.0157546997070312 0x7fffc000 0.03125 0x00400140 0x7fff8000 0 0.00102806091308594 2156k 0.00102806091308594 820.971664428711 0.0000 
1048576 192.078075408936 47.4461355209351 0.000395774841308594 485321.5904 192.078075408936 192.077676773071 0.000398635864257812 0.000154495239257812 0 0 0.0000 0.0000 0.0000 0.0000 51.4462118148804 49.6282520294189 1.81795978546143 1.81771564483643 1.63175392150879 0 0.0353 0.0353 0.0317 0.0000 3.45011234283447 3.29640007019043 0.153712272644043 0.028712272644043 0.0284395217895508 0 0.0446 0.0083 0.0082 0.0000 192.078075408936 192.078065872192 9.5367431640625e-06 0 0 0 0.0000 0.0000 0.0000 0.0000 51.4462118148804 51.4389371871948 0.00727462768554688 0.00715255737304688 0.00715065002441406 0 0.0001 0.0001 0.0001 0.0000 0x00400000 0.072479248046875 0x10000000 0.00787734985351562 0x7fffc000 0.015625 0x00400140 0x7fff8000 0 0.00100231170654297 4204k 0.00100231170654297 871.653949737549 0.0000 
2097152 198.833754062653 49.2029871940613 0.000229358673095703 866911.8607 198.833754062653 198.83355474472 0.000199317932128906 7.72476196289062e-05 0 0 0.0000 0.0000 0.0000 0.0000 53.2030253410339 51.292151927948 1.91087341308594 1.91075134277344 1.7603554725647 0 0.0359 0.0359 0.0331 0.0000 3.67142820358276 3.16353797912598 0.507890224456787 0.445390224456787 0.435094833374023 0 0.1383 0.1213 0.1185 0.0000 198.833754062653 198.833749294281 4.76837158203125e-06 0 0 0 0.0000 0.0000 0.0000 0.0000 53.2030253410339 53.1951513290405 0.0078740119934082 0.0078129768371582 0.0078120231628418 0 0.0001 0.0001 0.0001 0.0000 0x00400000 0.0362396240234375 0x10000000 0.00393867492675781 0x7fffc000 0.0078125 0x00400140 0x7fff8000 0 0.000989437103271484 8300k 0.000989437103271484 901.965679168701 0.0000 
4194304 206.432480812073 51.1220631599426 0.000146627426147461 1407870.8618 206.432480812073 206.432381153107 9.96589660644531e-05 3.86238098144531e-05 0 0 0.0000 0.0000 0.0000 0.0000 55.122082233429 53.1014688014984 2.02061343193054 2.02055239677429 1.87560176849365 0 0.0367 0.0367 0.0340 0.0000 3.89631485939026 3.24035716056824 0.655957698822021 0.624707698822021 0.603731155395508 0 0.1684 0.1603 0.1549 0.0000 206.432480812073 206.432478427887 2.38418579101562e-06 0 0 0 0.0000 0.0000 0.0000 0.0000 55.122082233429 55.1133623123169 0.00871992111206055 0.00868940353393555 0.00868892669677734 0 0.0002 0.0002 0.0002 0.0000 0x00400000 0.0181198120117188 0x10000000 0.00196933746337891 0x7fffc000 0.00390625 0x00400140 0x7fff8000 0 0.000982999801635742 16492k 0.000982999801635742 936.08639383316 0.0000 
