#set_size_in_keys sim_num_insn sim_num_refs sim_elapsed_time sim_inst_rate sim_num_branches sim_IPB bpred_bimod.lookups bpred_bimod.updates bpred_bimod.addr_hits bpred_bimod.dir_hits bpred_bimod.misses bpred_bimod.jr_hits bpred_bimod.jr_seen bpred_bimod.jr_non_ras_hits.PP bpred_bimod.jr_non_ras_seen.PP bpred_bimod.bpred_addr_rate bpred_bimod.bpred_dir_rate bpred_bimod.bpred_jr_rate bpred_bimod.bpred_jr_non_ras_rate.PP bpred_bimod.retstack_pushes bpred_bimod.retstack_pops bpred_bimod.used_ras.PP bpred_bimod.ras_hits.PP bpred_bimod.ras_rate.PP
4096 113.745849609375 29.9248046875 0.000244140625 465903.0000 18.761962890625 6.0626 18.761962890625 18.761962890625 13.489501953125 13.516357421875 5.24560546875 0.120849609375 0.120849609375 0 0 0.7190 0.7204 1.0000 <error: 0.121337890625 0.120849609375 0.120849609375 0.120849609375 1.0000 
8192 124.467163085938 31.94775390625 0.0001220703125 1019635.0000 20.670654296875 6.0214 20.670654296875 20.670654296875 15.0439453125 15.0577392578125 5.6129150390625 0.116455078125 0.116455078125 0 0 0.7278 0.7285 1.0000 <error: 0.11669921875 0.116455078125 0.116455078125 0.116455078125 1.0000 
16384 132.07958984375 33.6799926757812 6.103515625e-05 2163992.0000 22.1214599609375 5.9707 22.1214599609375 22.1214599609375 16.11279296875 16.1194458007812 6.00201416015625 0.11065673828125 0.11065673828125 0 0 0.7284 0.7287 1.0000 <error: 0.11077880859375 0.11065673828125 0.11065673828125 0.11065673828125 1.0000 
32768 142.413269042969 35.81494140625 3.0517578125e-05 4666598.0000 23.9465026855469 5.9471 23.9465026855469 23.9465026855469 17.6382751464844 17.6416015625 6.30490112304688 0.11016845703125 0.11016845703125 0 0 0.7366 0.7367 1.0000 <error: 0.1102294921875 0.11016845703125 0.11016845703125 0.11016845703125 1.0000 
65536 152.617004394531 38.1328582763672 1.52587890625e-05 10001908.0000 25.7924346923828 5.9171 25.7924346923828 25.7924346923828 18.9286041259766 18.9302825927734 6.86215209960938 0.107803344726562 0.107803344726562 0 0 0.7339 0.7339 1.0000 <error: 0.107833862304688 0.107803344726562 0.107803344726562 0.107803344726562 1.0000 
131072 158.389213562012 39.7159271240234 1.52587890625e-05 10380195.5000 26.829345703125 5.9036 26.829345703125 26.829345703125 19.4061279296875 19.4069900512695 7.42235565185547 0.107421875 0.107421875 0 0 0.7233 0.7233 1.0000 <error: 0.107437133789062 0.107421875 0.107421875 0.107421875 1.0000 
262144 171.741611480713 42.4147491455078 1.9073486328125e-05 9004206.6000 29.1704711914062 5.8875 29.1704711914062 29.1704711914062 21.6019439697266 21.6023712158203 7.56809997558594 0.107524871826172 0.107524871826172 0 0 0.7405 0.7406 1.0000 <error: 0.107532501220703 0.107524871826172 0.107524871826172 0.107524871826172 1.0000 
524288 179.478385925293 44.3612022399902 2.288818359375e-05 7841530.3333 30.6060485839844 5.8641 30.6060485839844 30.6060485839844 22.4658794403076 22.4660930633545 8.13995552062988 0.107290267944336 0.107290267944336 0 0 0.7340 0.7340 1.0000 <error: 0.107294082641602 0.107290267944336 0.107290267944336 0.107290267944336 1.0000 
1048576 191.039436340332 46.8030109405518 2.38418579101562e-05 8012774.7200 32.6235456466675 5.8559 32.6235456466675 32.6235456466675 24.2084140777588 24.2085237503052 8.4150218963623 0.107254028320312 0.107254028320312 0 0 0.7421 0.7421 1.0000 <error: 0.107255935668945 0.107254028320312 0.107254028320312 0.107254028320312 1.0000 
2097152 272.639992713928 68.578905582428 3.52859497070312e-05 7726587.9189 43.165506362915 6.3162 43.165506362915 43.165506362915 32.288761138916 32.2888374328613 10.8766689300537 0.115317821502686 0.115318298339844 0 4.76837158203125e-07 0.7480 0.7480 1.0000 0.0000 0.115318775177002 0.115317821502686 0.115317821502686 0.115317821502686 1.0000 
4194304 290.834966897964 75.0743036270142 3.74317169189453e-05 7769746.9108 46.5023698806763 6.2542 46.5023698806763 46.5023698806763 35.6272051334381 35.6272435188293 10.8751263618469 0.107814788818359 0.107815027236938 0 2.38418579101562e-07 0.7661 0.7661 1.0000 0.0000 0.107815265655518 0.107814788818359 0.107814788818359 0.107814788818359 1.0000 
