#set_size_in_keys sim_num_insn sim_num_refs sim_elapsed_time sim_inst_rate il1.accesses il1.hits il1.misses il1.replacements il1.writebacks il1.invalidations il1.miss_rate il1.repl_rate il1.wb_rate il1.inv_rate dl1.accesses dl1.hits dl1.misses dl1.replacements dl1.writebacks dl1.invalidations dl1.miss_rate dl1.repl_rate dl1.wb_rate dl1.inv_rate dl2.accesses dl2.hits dl2.misses dl2.replacements dl2.writebacks dl2.invalidations dl2.miss_rate dl2.repl_rate dl2.wb_rate dl2.inv_rate itlb.accesses itlb.hits itlb.misses itlb.replacements itlb.writebacks itlb.invalidations itlb.miss_rate itlb.repl_rate itlb.wb_rate itlb.inv_rate dtlb.accesses dtlb.hits dtlb.misses dtlb.replacements dtlb.writebacks dtlb.invalidations dtlb.miss_rate dtlb.repl_rate dtlb.wb_rate dtlb.inv_rate ld_text_base ld_text_size ld_data_base ld_data_size ld_stack_base ld_stack_size ld_prog_entry ld_environ_base ld_target_big_endian mem.page_count mem.page_mem mem.ptab_misses mem.ptab_accesses mem.ptab_miss_rate
4096 210.087158203125 55.923095703125 0.001220703125 172103.4000 210.087158203125 209.9482421875 0.138916015625 0.076416015625 0 0 0.0007 0.0004 0.0000 0.0000 59.942626953125 58.2509765625 1.691650390625 1.629150390625 1.230224609375 0 0.0282 0.0272 0.0205 0.0000 3.060791015625 2.58349609375 0.477294921875 0 0 0 0.1559 0.0000 0.0000 0.0000 210.087158203125 210.084228515625 0.0029296875 0 0 0 0.0000 0.0000 0.0000 0.0000 59.942626953125 59.938720703125 0.00390625 0 0 0 0.0001 0.0000 0.0000 0.0000 0x00400000 21.98046875 0x10000000 2.0166015625 0x7fffc000 4 0x00400140 0x7fff8000 0 0.00927734375 152k 0.00927734375 1095.5234375 0.0000 
8192 213.834106445312 57.6356201171875 0.0009765625 218966.1250 213.834106445312 213.761962890625 0.0721435546875 0.0408935546875 0 0 0.0003 0.0002 0.0000 0.0000 61.6453857421875 59.9141845703125 1.731201171875 1.699951171875 1.191650390625 0 0.0281 0.0276 0.0193 0.0000 2.9949951171875 2.629150390625 0.3658447265625 0 0 0 0.1222 0.0000 0.0000 0.0000 213.834106445312 213.832641601562 0.00146484375 0 0 0 0.0000 0.0000 0.0000 0.0000 61.6453857421875 61.6424560546875 0.0029296875 0 0 0 0.0000 0.0000 0.0000 0.0000 0x00400000 10.994140625 0x10000000 1.00830078125 0x7fffc000 2 0x00400140 0x7fff8000 0 0.005615234375 184k 0.005615234375 1046.29541015625 0.0000 
16384 241.726379394531 64.1953125 0.0008544921875 282888.9286 241.726379394531 241.690795898438 0.03558349609375 0.01995849609375 0 0 0.0001 0.0001 0.0000 0.0000 68.2001953125 66.0926513671875 2.1075439453125 2.0919189453125 1.42437744140625 0 0.0309 0.0307 0.0209 0.0000 3.5675048828125 3.26019287109375 0.30731201171875 0 0 0 0.0861 0.0000 0.0000 0.0000 241.726379394531 241.725646972656 0.000732421875 0 0 0 0.0000 0.0000 0.0000 0.0000 68.2001953125 68.19775390625 0.00244140625 0 0 0 0.0000 0.0000 0.0000 0.0000 0x00400000 5.498046875 0x10000000 0.504150390625 0x7fffc000 1 0x00400140 0x7fff8000 0 0.0037841796875 248k 0.0037841796875 1137.14587402344 0.0000 
32768 246.029052734375 66.2408142089844 0.000762939453125 322475.2000 246.029052734375 246.010925292969 0.01812744140625 0.01031494140625 0 0 0.0001 0.0000 0.0000 0.0000 70.2432556152344 68.054443359375 2.18881225585938 2.18099975585938 1.41357421875 0 0.0312 0.0310 0.0201 0.0000 3.62051391601562 3.34149169921875 0.279022216796875 0 0 0 0.0771 0.0000 0.0000 0.0000 246.029052734375 246.028686523438 0.0003662109375 0 0 0 0.0000 0.0000 0.0000 0.0000 70.2432556152344 70.2410583496094 0.002197265625 0 0 0 0.0000 0.0000 0.0000 0.0000 0x00400000 2.74951171875 0x10000000 0.2520751953125 0x7fffc000 0.5 0x00400140 0x7fff8000 0 0.00286865234375 376k 0.00286865234375 1141.52563476562 0.0000 
65536 274.459533691406 73.0252685546875 0.000701904296875 391021.3043 274.459533691406 274.450744628906 0.0087890625 0.0048828125 0 0 0.0000 0.0000 0.0000 0.0000 77.0264892578125 74.4385833740234 2.58790588378906 2.58399963378906 1.66171264648438 0 0.0336 0.0335 0.0216 0.0000 4.25840759277344 3.99415588378906 0.264251708984375 0 0 0 0.0621 0.0000 0.0000 0.0000 274.459533691406 274.459350585938 0.00018310546875 0 0 0 0.0000 0.0000 0.0000 0.0000 77.0264892578125 77.0233764648438 0.00311279296875 0.00115966796875 0.00079345703125 0 0.0000 0.0000 0.0000 0.0000 0x00400000 1.374755859375 0x10000000 0.12603759765625 0x7fffc000 0.25 0x00400140 0x7fff8000 0 0.002410888671875 632k 0.002410888671875 1260.35256958008 0.0000 
131072 278.941856384277 75.1707534790039 0.0005950927734375 468736.7564 278.941856384277 278.937324523926 0.0045318603515625 0.0025787353515625 0 0 0.0000 0.0000 0.0000 0.0000 79.1713638305664 76.4924774169922 2.67888641357422 2.67693328857422 1.65721893310547 0 0.0338 0.0338 0.0209 0.0000 4.34063720703125 4.08338165283203 0.257255554199219 0 0 0 0.0593 0.0000 0.0000 0.0000 278.941856384277 278.941764831543 9.1552734375e-05 0 0 0 0.0000 0.0000 0.0000 0.0000 79.1713638305664 79.1528701782227 0.01849365234375 0.01751708984375 0.0102920532226562 0 0.0002 0.0002 0.0001 0.0000 0x00400000 0.6873779296875 0x10000000 0.063018798828125 0x7fffc000 0.125 0x00400140 0x7fff8000 0 0.0021820068359375 1144k 0.0021820068359375 1278.34088134766 0.0000 
262144 307.314178466797 81.9631958007812 0.00041961669921875 732368.8000 307.314178466797 307.31201171875 0.002166748046875 0.001190185546875 0 0 0.0000 0.0000 0.0000 0.0000 85.9635009765625 82.8812294006348 3.08227157592773 3.08129501342773 1.9084587097168 0 0.0359 0.0358 0.0222 0.0000 4.99289703369141 4.59961318969727 0.393283843994141 0.143283843994141 0.141651153564453 0 0.0788 0.0287 0.0284 0.0000 307.314178466797 307.31413269043 4.57763671875e-05 0 0 0 0.0000 0.0000 0.0000 0.0000 85.9635009765625 85.9428367614746 0.0206642150878906 0.0201759338378906 0.0115585327148438 0 0.0002 0.0002 0.0001 0.0000 0x00400000 0.34368896484375 0x10000000 0.0315093994140625 0x7fffc000 0.0625 0x00400140 0x7fff8000 0 0.00206756591796875 2168k 0.00206756591796875 1403.29907989502 0.0000 
524288 321.194887161255 87.1682720184326 0.0002593994140625 1238225.1838 321.194887161255 321.19361114502 0.00127601623535156 0.000787734985351562 0 0 0.0000 0.0000 0.0000 0.0000 91.1684246063232 87.7397270202637 3.42869758605957 3.42820930480957 2.03238487243652 0 0.0376 0.0376 0.0223 0.0000 5.46235847473145 4.46742057800293 0.994937896728516 0.869937896728516 0.681032180786133 0 0.1821 0.1593 0.1247 0.0000 321.194887161255 321.194864273071 2.288818359375e-05 0 0 0 0.0000 0.0000 0.0000 0.0000 91.1684246063232 91.1441078186035 0.0243167877197266 0.0240726470947266 0.0135135650634766 0 0.0003 0.0003 0.0001 0.0000 0x00400000 0.171844482421875 0x10000000 0.0157546997070312 0x7fffc000 0.03125 0x00400140 0x7fff8000 0 0.00202178955078125 4240k 0.0020904541015625 1468.17407989502 0.0000 
1048576 349.545023918152 93.9556875228882 0.000189781188964844 1841831.7739 349.545023918152 349.544402122498 0.000621795654296875 0.000377655029296875 0 0 0.0000 0.0000 0.0000 0.0000 97.9557638168335 94.1235885620117 3.83217525482178 3.83193111419678 2.28347682952881 0 0.0391 0.0391 0.0233 0.0000 6.11627388000488 4.87370872497559 1.2425651550293 1.1800651550293 0.835545539855957 0 0.2032 0.1929 0.1366 0.0000 349.545023918152 349.54501247406 1.1444091796875e-05 0 0 0 0.0000 0.0000 0.0000 0.0000 97.9557638168335 97.9295091629028 0.0262546539306641 0.0261325836181641 0.0145406723022461 0 0.0003 0.0003 0.0001 0.0000 0x00400000 0.0859222412109375 0x10000000 0.00787734985351562 0x7fffc000 0.015625 0x00400140 0x7fff8000 0 0.00198745727539062 8336k 0.0962610244750977 1594.62046432495 0.0001 
2097152 354.266427516937 96.1691479682922 0.000148773193359375 2381251.7532 354.266427516937 354.266108512878 0.000319004058837891 0.000196933746337891 0 0 0.0000 0.0000 0.0000 0.0000 100.169186115265 96.2420287132263 3.92715740203857 3.92703533172607 2.28157997131348 0 0.0392 0.0392 0.0228 0.0000 6.20905637741089 4.71762275695801 1.49143362045288 1.46018362045288 0.975322723388672 0 0.2402 0.2352 0.1571 0.0000 354.266427516937 354.266421794891 5.7220458984375e-06 0 0 0 0.0000 0.0000 0.0000 0.0000 100.169186115265 100.140983104706 0.028203010559082 0.028141975402832 0.0155439376831055 0 0.0003 0.0003 0.0002 0.0000 0x00400000 0.0429611206054688 0x10000000 0.00393867492675781 0x7fffc000 0.0078125 0x00400140 0x7fff8000 0 0.00197315216064453 16552k 0.0505952835083008 1617.66850280762 0.0000 
4194304 382.606046199799 102.961532831192 0.000137805938720703 2776411.8858 382.606046199799 382.605890750885 0.000155448913574219 9.44137573242188e-05 0 0 0.0000 0.0000 0.0000 0.0000 106.961551904678 102.629905700684 4.33164620399475 4.3315851688385 2.53338694572449 0 0.0405 0.0405 0.0237 0.0000 6.86518859863281 5.12404441833496 1.74114418029785 1.72551918029785 1.10800790786743 0 0.2536 0.2513 0.1614 0.0000 382.606046199799 382.606043338776 2.86102294921875e-06 0 0 0 0.0000 0.0000 0.0000 0.0000 106.961551904678 106.931398153305 0.030153751373291 0.030123233795166 0.0165345668792725 0 0.0003 0.0003 0.0002 0.0000 0x00400000 0.0214805603027344 0x10000000 0.00196933746337891 0x7fffc000 0.00390625 0x00400140 0x7fff8000 0 0.00196599960327148 32984k 0.0277256965637207 1744.47949886322 0.0000 
