#set_size_in_keys sim_num_insn sim_num_refs sim_elapsed_time sim_inst_rate sim_num_branches sim_IPB bpred_2lev.lookups bpred_2lev.updates bpred_2lev.addr_hits bpred_2lev.dir_hits bpred_2lev.misses bpred_2lev.jr_hits bpred_2lev.jr_seen bpred_2lev.jr_non_ras_hits.PP bpred_2lev.jr_non_ras_seen.PP bpred_2lev.bpred_addr_rate bpred_2lev.bpred_dir_rate bpred_2lev.bpred_jr_rate bpred_2lev.bpred_jr_non_ras_rate.PP bpred_2lev.retstack_pushes bpred_2lev.retstack_pops bpred_2lev.used_ras.PP bpred_2lev.ras_hits.PP bpred_2lev.ras_rate.PP
4096 210.087158203125 55.923095703125 0.000244140625 860517.0000 27.583251953125 7.6165 27.583251953125 27.583251953125 21.303955078125 21.341796875 6.241455078125 0.018798828125 0.01904296875 0 0 0.7724 0.7737 0.9872 <error: 0.01953125 0.01904296875 0.01904296875 0.018798828125 0.9872 
8192 213.834106445312 57.6356201171875 0.0001220703125 1751729.0000 28.7938232421875 7.4264 28.7938232421875 28.7938232421875 22.1356201171875 22.1539306640625 6.639892578125 0.0103759765625 0.010498046875 0 0 0.7688 0.7694 0.9884 <error: 0.0107421875 0.010498046875 0.010498046875 0.0103759765625 0.9884 
16384 241.726379394531 64.1953125 6.103515625e-05 3960445.0000 31.4324340820312 7.6903 31.4324340820312 31.4324340820312 24.181884765625 24.1910400390625 7.24139404296875 0.00616455078125 0.0062255859375 0 0 0.7693 0.7696 0.9902 <error: 0.00634765625 0.0062255859375 0.0062255859375 0.00616455078125 0.9902 
32768 246.029052734375 66.2408142089844 3.0517578125e-05 8061880.0000 32.6931457519531 7.5254 32.6931457519531 32.6931457519531 25.0698852539062 25.0745239257812 7.61862182617188 0.004058837890625 0.00408935546875 0 0 0.7668 0.7670 0.9925 <error: 0.004150390625 0.00408935546875 0.00408935546875 0.004058837890625 0.9925 
65536 274.459533691406 73.0252685546875 4.57763671875e-05 5995660.0000 35.4083862304688 7.7513 35.4083862304688 35.4083862304688 27.1194152832031 27.1216888427734 8.28669738769531 0.0030059814453125 0.003021240234375 0 0 0.7659 0.7660 0.9949 <error: 0.0030517578125 0.003021240234375 0.003021240234375 0.0030059814453125 0.9949 
131072 278.941856384277 75.1707534790039 3.814697265625e-05 7312293.4000 36.7030181884766 7.6000 36.7030181884766 36.7030181884766 28.0331344604492 28.034309387207 8.66870880126953 0.00247955322265625 0.0024871826171875 0 0 0.7638 0.7638 0.9969 <error: 0.00250244140625 0.0024871826171875 0.0024871826171875 0.00247955322265625 0.9969 
262144 307.314178466797 81.9631958007812 3.4332275390625e-05 8951174.2222 39.3930969238281 7.8012 39.3930969238281 39.3930969238281 30.0532493591309 30.0538177490234 9.33927917480469 0.00221633911132812 0.00222015380859375 0 0 0.7629 0.7629 0.9983 <error: 0.002227783203125 0.00222015380859375 0.00222015380859375 0.00221633911132812 0.9983 
524288 321.194887161255 87.1682720184326 3.814697265625e-05 8419931.2500 41.8346920013428 7.6777 41.8346920013428 41.8346920013428 32.227611541748 32.2279663085938 9.60672569274902 0.00209426879882812 0.00209617614746094 0 1.9073486328125e-06 0.7704 0.7704 0.9991 0.0000 0.00209808349609375 0.00209426879882812 0.00209426879882812 0.00209426879882812 1.0000 
1048576 349.545023918152 93.9556875228882 4.00543212890625e-05 8726774.3571 44.519681930542 7.8515 44.519681930542 44.519681930542 34.2418975830078 34.2420701980591 10.2776117324829 0.00202560424804688 0.00202655792236328 0 9.5367431640625e-07 0.7691 0.7691 0.9995 0.0000 0.00202751159667969 0.00202560424804688 0.00202560424804688 0.00202560424804688 1.0000 
2097152 354.266427516937 96.1691479682922 4.38690185546875e-05 8075549.4239 45.8522114753723 7.7263 45.8522114753723 45.8522114753723 35.1827850341797 35.1828727722168 10.6693387031555 0.00199127197265625 0.00199174880981445 0 4.76837158203125e-07 0.7673 0.7673 0.9998 0.0000 0.00199222564697266 0.00199127197265625 0.00199127197265625 0.00199127197265625 1.0000 
4194304 382.606046199799 102.961532831192 4.55379486083984e-05 8401916.5969 48.5344405174255 7.8832 48.5344405174255 48.5344405174255 37.1936511993408 37.1936941146851 11.3407464027405 0.00197410583496094 0.00197434425354004 0 2.38418579101562e-07 0.7663 0.7663 0.9999 0.0000 0.00197458267211914 0.00197410583496094 0.00197410583496094 0.00197410583496094 1.0000 
