#set_size_in_keys sim_num_insn sim_num_refs sim_elapsed_time sim_inst_rate sim_num_branches sim_IPB bpred_bimod.lookups bpred_bimod.updates bpred_bimod.addr_hits bpred_bimod.dir_hits bpred_bimod.misses bpred_bimod.jr_hits bpred_bimod.jr_seen bpred_bimod.jr_non_ras_hits.PP bpred_bimod.jr_non_ras_seen.PP bpred_bimod.bpred_addr_rate bpred_bimod.bpred_dir_rate bpred_bimod.bpred_jr_rate bpred_bimod.bpred_jr_non_ras_rate.PP bpred_bimod.retstack_pushes bpred_bimod.retstack_pops bpred_bimod.used_ras.PP bpred_bimod.ras_hits.PP bpred_bimod.ras_rate.PP
4096 210.087158203125 55.923095703125 0.000244140625 860517.0000 27.583251953125 7.6165 27.583251953125 27.583251953125 21.31005859375 21.344970703125 6.23828125 0.018798828125 0.01904296875 0 0 0.7726 0.7738 0.9872 <error: 0.01953125 0.01904296875 0.01904296875 0.018798828125 0.9872 
8192 213.834106445312 57.6356201171875 0.0001220703125 1751729.0000 28.7938232421875 7.4264 28.7938232421875 28.7938232421875 22.477294921875 22.4949951171875 6.298828125 0.0103759765625 0.010498046875 0 0 0.7806 0.7812 0.9884 <error: 0.0107421875 0.010498046875 0.010498046875 0.0103759765625 0.9884 
16384 241.726379394531 64.1953125 6.103515625e-05 3960445.0000 31.4324340820312 7.6903 31.4324340820312 31.4324340820312 24.2144775390625 24.222900390625 7.20953369140625 0.00616455078125 0.0062255859375 0 0 0.7704 0.7706 0.9902 <error: 0.00634765625 0.0062255859375 0.0062255859375 0.00616455078125 0.9902 
32768 246.029052734375 66.2408142089844 3.0517578125e-05 8061880.0000 32.6931457519531 7.5254 32.6931457519531 32.6931457519531 25.3943481445312 25.3987121582031 7.29443359375 0.004058837890625 0.00408935546875 0 0 0.7767 0.7769 0.9925 <error: 0.004150390625 0.00408935546875 0.00408935546875 0.004058837890625 0.9925 
65536 274.459533691406 73.0252685546875 3.0517578125e-05 8993490.0000 35.4083862304688 7.7513 35.4083862304688 35.4083862304688 27.2098541259766 27.2119598388672 8.19642639160156 0.0030059814453125 0.003021240234375 0 0 0.7685 0.7685 0.9949 <error: 0.0030517578125 0.003021240234375 0.003021240234375 0.0030059814453125 0.9949 
131072 278.941856384277 75.1707534790039 3.0517578125e-05 9140366.7500 36.7030181884766 7.6000 36.7030181884766 36.7030181884766 28.4216079711914 28.4226989746094 8.28031921386719 0.00247955322265625 0.0024871826171875 0 0 0.7744 0.7744 0.9969 <error: 0.00250244140625 0.0024871826171875 0.0024871826171875 0.00247955322265625 0.9969 
262144 307.314178466797 81.9631958007812 3.4332275390625e-05 8951174.2222 39.3930969238281 7.8012 39.3930969238281 39.3930969238281 30.1934204101562 30.1939582824707 9.19913864135742 0.00221633911132812 0.00222015380859375 0 0 0.7665 0.7665 0.9983 <error: 0.002227783203125 0.00222015380859375 0.00222015380859375 0.00221633911132812 0.9983 
524288 321.194887161255 87.1682720184326 3.814697265625e-05 8419931.2500 41.8346920013428 7.6777 41.8346920013428 41.8346920013428 32.5497627258301 32.5500907897949 9.28460121154785 0.00209426879882812 0.00209617614746094 0 1.9073486328125e-06 0.7781 0.7781 0.9991 0.0000 0.00209808349609375 0.00209426879882812 0.00209426879882812 0.00209426879882812 1.0000 
1048576 349.545023918152 93.9556875228882 4.00543212890625e-05 8726774.3571 44.519681930542 7.8515 44.519681930542 44.519681930542 34.3169679641724 34.3171262741089 10.2025556564331 0.00202560424804688 0.00202655792236328 0 9.5367431640625e-07 0.7708 0.7708 0.9995 0.0000 0.00202751159667969 0.00202560424804688 0.00202560424804688 0.00202560424804688 1.0000 
2097152 354.266427516937 96.1691479682922 4.29153442382812e-05 8255006.0778 45.8522114753723 7.7263 45.8522114753723 45.8522114753723 35.5707664489746 35.5708479881287 10.2813634872437 0.00199127197265625 0.00199174880981445 0 4.76837158203125e-07 0.7758 0.7758 0.9998 0.0000 0.00199222564697266 0.00199127197265625 0.00199127197265625 0.00199127197265625 1.0000 
4194304 382.606046199799 102.961532831192 4.31537628173828e-05 8866110.8840 48.5344405174255 7.8832 48.5344405174255 48.5344405174255 37.3354070186615 37.3354465961456 11.1989939212799 0.00197410583496094 0.00197434425354004 0 2.38418579101562e-07 0.7693 0.7693 0.9999 0.0000 0.00197458267211914 0.00197410583496094 0.00197410583496094 0.00197410583496094 1.0000 
