#set_size_in_keys sim_num_insn sim_num_refs sim_elapsed_time sim_inst_rate il1.accesses il1.hits il1.misses il1.replacements il1.writebacks il1.invalidations il1.miss_rate il1.repl_rate il1.wb_rate il1.inv_rate dl1.accesses dl1.hits dl1.misses dl1.replacements dl1.writebacks dl1.invalidations dl1.miss_rate dl1.repl_rate dl1.wb_rate dl1.inv_rate dl2.accesses dl2.hits dl2.misses dl2.replacements dl2.writebacks dl2.invalidations dl2.miss_rate dl2.repl_rate dl2.wb_rate dl2.inv_rate itlb.accesses itlb.hits itlb.misses itlb.replacements itlb.writebacks itlb.invalidations itlb.miss_rate itlb.repl_rate itlb.wb_rate itlb.inv_rate dtlb.accesses dtlb.hits dtlb.misses dtlb.replacements dtlb.writebacks dtlb.invalidations dtlb.miss_rate dtlb.repl_rate dtlb.wb_rate dtlb.inv_rate ld_text_base ld_text_size ld_data_base ld_data_size ld_stack_base ld_stack_size ld_prog_entry ld_environ_base ld_target_big_endian mem.page_count mem.page_mem mem.ptab_misses mem.ptab_accesses mem.ptab_miss_rate
4096 92.43798828125 33.912841796875 0.001220703125 75725.2000 92.43798828125 92.343017578125 0.094970703125 0.032470703125 0 0 0.0010 0.0004 0.0000 0.0000 37.932373046875 35.1533203125 2.779052734375 2.716552734375 2.102294921875 0 0.0733 0.0716 0.0554 0.0000 4.976318359375 4.51513671875 0.461181640625 0 0 0 0.0927 0.0000 0.0000 0.0000 92.43798828125 92.435302734375 0.002685546875 0 0 0 0.0000 0.0000 0.0000 0.0000 37.932373046875 37.9287109375 0.003662109375 0 0 0 0.0001 0.0000 0.0000 0.0000 0x00400000 18.609375 0x10000000 2.0126953125 0x7fffc000 4 0x00400140 0x7fff8000 0 0.00830078125 136k 0.00830078125 560.9384765625 0.0000 
8192 90.861328125 32.9617919921875 0.0009765625 93042.0000 90.861328125 90.814697265625 0.046630859375 0.015380859375 0 0 0.0005 0.0002 0.0000 0.0000 36.9715576171875 34.2733154296875 2.6982421875 2.6669921875 2.045166015625 0 0.0730 0.0721 0.0553 0.0000 4.7900390625 4.435546875 0.3544921875 0 0 0 0.0740 0.0000 0.0000 0.0000 90.861328125 90.8599853515625 0.0013427734375 0 0 0 0.0000 0.0000 0.0000 0.0000 36.9715576171875 36.96875 0.0028076171875 0 0 0 0.0001 0.0000 0.0000 0.0000 0x00400000 9.30859375 0x10000000 1.00634765625 0x7fffc000 2 0x00400140 0x7fff8000 0 0.005126953125 168k 0.005126953125 495.07275390625 0.0000 
16384 90.0557861328125 32.4808959960938 0.00079345703125 113498.0000 90.0557861328125 90.0304565429688 0.02532958984375 0.00970458984375 0 0 0.0003 0.0001 0.0000 0.0000 36.4857788085938 33.8267822265625 2.65899658203125 2.64337158203125 2.01953125 0 0.0729 0.0724 0.0554 0.0000 4.703857421875 4.40142822265625 0.30242919921875 0 0 0 0.0643 0.0000 0.0000 0.0000 90.0557861328125 90.0551147460938 0.00067138671875 0 0 0 0.0000 0.0000 0.0000 0.0000 36.4857788085938 36.4833984375 0.00238037109375 0 0 0 0.0001 0.0000 0.0000 0.0000 0x00400000 4.6552734375 0x10000000 0.503173828125 0x7fffc000 1 0x00400140 0x7fff8000 0 0.0035400390625 232k 0.0035400390625 462.042724609375 0.0000 
32768 89.6529235839844 32.2404479980469 0.000732421875 122406.1250 89.6529235839844 89.6412353515625 0.011688232421875 0.003875732421875 0 0 0.0001 0.0000 0.0000 0.0000 36.2428894042969 33.6111755371094 2.6317138671875 2.6239013671875 1.99942016601562 0 0.0726 0.0724 0.0552 0.0000 4.642822265625 4.36666870117188 0.276153564453125 0 0 0 0.0595 0.0000 0.0000 0.0000 89.6529235839844 89.652587890625 0.000335693359375 0 0 0 0.0000 0.0000 0.0000 0.0000 36.2428894042969 36.24072265625 0.002166748046875 0 0 0 0.0001 0.0000 0.0000 0.0000 0x00400000 2.328125 0x10000000 0.2515869140625 0x7fffc000 0.5 0x00400140 0x7fff8000 0 0.00274658203125 360k 0.00274658203125 445.5244140625 0.0000 
65536 89.4514617919922 32.1202239990234 0.0006561279296875 136332.3488 89.4514617919922 89.4456176757812 0.0058441162109375 0.0019378662109375 0 0 0.0001 0.0000 0.0000 0.0000 36.1214447021484 33.4974060058594 2.62403869628906 2.62013244628906 1.99537658691406 0 0.0726 0.0725 0.0552 0.0000 4.62525939941406 4.3621826171875 0.263076782226562 0 0 0 0.0569 0.0000 0.0000 0.0000 89.4514617919922 89.4512939453125 0.0001678466796875 0 0 0 0.0000 0.0000 0.0000 0.0000 36.1214447021484 36.1191864013672 0.00225830078125 0.00030517578125 0.0002288818359375 0 0.0001 0.0000 0.0000 0.0000 0x00400000 1.1640625 0x10000000 0.12579345703125 0x7fffc000 0.25 0x00400140 0x7fff8000 0 0.002349853515625 616k 0.002349853515625 437.26220703125 0.0000 
131072 89.3507385253906 32.0601119995117 0.0006256103515625 142821.7073 89.3507385253906 89.3478164672852 0.00292205810546875 0.00096893310546875 0 0 0.0000 0.0000 0.0000 0.0000 36.0607223510742 33.4440155029297 2.61670684814453 2.61475372314453 1.9898681640625 0 0.0726 0.0725 0.0552 0.0000 4.6094970703125 4.35295867919922 0.256538391113281 0 0 0 0.0557 0.0000 0.0000 0.0000 89.3507385253906 89.3506546020508 8.392333984375e-05 0 0 0 0.0000 0.0000 0.0000 0.0000 36.0607223510742 35.9813613891602 0.0793609619140625 0.0783843994140625 0.0743560791015625 0 0.0022 0.0022 0.0021 0.0000 0x00400000 0.58203125 0x10000000 0.062896728515625 0x7fffc000 0.125 0x00400140 0x7fff8000 0 0.0021514892578125 1128k 0.0021514892578125 433.131134033203 0.0000 
262144 89.3003692626953 32.0300559997559 0.000377655029296875 236460.1616 89.3003692626953 89.2989082336426 0.00146102905273438 0.000484466552734375 0 0 0.0000 0.0000 0.0000 0.0000 36.0303611755371 33.4141235351562 2.61623764038086 2.61526107788086 1.99032592773438 0 0.0726 0.0726 0.0552 0.0000 4.60802459716797 4.3458366394043 0.262187957763672 0.0121879577636719 0.0113525390625 0 0.0569 0.0026 0.0025 0.0000 89.3003692626953 89.3003273010254 4.1961669921875e-05 0 0 0 0.0000 0.0000 0.0000 0.0000 36.0303611755371 34.0244827270508 2.00587844848633 2.00539016723633 2.00051116943359 0 0.0557 0.0557 0.0555 0.0000 0x00400000 0.291015625 0x10000000 0.0314483642578125 0x7fffc000 0.0625 0x00400140 0x7fff8000 0 0.00205230712890625 2152k 0.00205230712890625 431.065567016602 0.0000 
524288 89.2751846313477 32.0150279998779 0.0001983642578125 450056.8077 89.2751846313477 89.2744541168213 0.000730514526367188 0.000242233276367188 0 0 0.0000 0.0000 0.0000 0.0000 36.0151805877686 33.4018058776855 2.61337471008301 2.61288642883301 1.9879150390625 0 0.0726 0.0725 0.0552 0.0000 4.60202026367188 3.46266174316406 1.13935852050781 1.01435852050781 0.565036773681641 0 0.2476 0.2204 0.1228 0.0000 89.2751846313477 89.2751636505127 2.09808349609375e-05 0 0 0 0.0000 0.0000 0.0000 0.0000 36.0151805877686 33.4940204620361 2.52116012573242 2.52091598510742 2.51605796813965 0 0.0700 0.0700 0.0699 0.0000 0x00400000 0.1455078125 0x10000000 0.0157241821289062 0x7fffc000 0.03125 0x00400140 0x7fff8000 0 0.00200271606445312 4200k 0.00200271606445312 430.032783508301 0.0000 
1048576 89.2744903564453 32.0163469314575 0.000117301940917969 761065.7561 89.2744903564453 89.27405834198 0.000432014465332031 0.000187873840332031 0 0 0.0000 0.0000 0.0000 0.0000 36.0164232254028 33.4018926620483 2.61453056335449 2.61428642272949 1.98893070220947 0 0.0726 0.0726 0.0552 0.0000 4.6038932800293 3.37659358978271 1.22729969024658 1.16479969024658 0.59578800201416 0 0.2666 0.2530 0.1294 0.0000 89.2744903564453 89.2744798660278 1.04904174804688e-05 0 0 0 0.0000 0.0000 0.0000 0.0000 36.0164232254028 32.9905052185059 3.02591800689697 3.02579593658447 3.02097702026367 0 0.0840 0.0840 0.0839 0.0000 0x00400000 0.07275390625 0x10000000 0.00786209106445312 0x7fffc000 0.015625 0x00400140 0x7fff8000 0 0.001983642578125 8320k 0.0176143646240234 429.581649780273 0.0000 
2097152 89.2666435241699 32.0111031532288 7.67707824707031e-05 1162768.4472 89.2666435241699 89.2664275169373 0.000216007232666016 9.39369201660156e-05 0 0 0.0000 0.0000 0.0000 0.0000 36.0111413002014 33.3969144821167 2.61422681808472 2.61410474777222 1.98892736434937 0 0.0726 0.0726 0.0552 0.0000 4.60337018966675 3.35758590698242 1.24578428268433 1.21453428268433 0.610797882080078 0 0.2706 0.2638 0.1327 0.0000 89.2666435241699 89.2666382789612 5.24520874023438e-06 0 0 0 0.0000 0.0000 0.0000 0.0000 36.0111413002014 32.6768918037415 3.33424949645996 3.33418846130371 3.32934999465942 0 0.0926 0.0926 0.0925 0.0000 0x00400000 0.036376953125 0x10000000 0.00393104553222656 0x7fffc000 0.0078125 0x00400140 0x7fff8000 0 0.00197124481201172 16536k 0.00881099700927734 429.314277648926 0.0000 
4194304 89.2627182006836 32.0084812641144 5.55515289306641e-05 1606845.3906 89.2627182006836 89.2626101970673 0.000108003616333008 4.69684600830078e-05 0 0 0.0000 0.0000 0.0000 0.0000 36.0085003376007 33.3933973312378 2.61510300636292 2.61504197120667 1.98995304107666 0 0.0726 0.0726 0.0553 0.0000 4.60516405105591 3.3553261756897 1.24983787536621 1.23421287536621 0.618292093276978 0 0.2714 0.2680 0.1343 0.0000 89.2627182006836 89.2627155780792 2.62260437011719e-06 0 0 0 0.0000 0.0000 0.0000 0.0000 36.0085003376007 32.4699137210846 3.53858661651611 3.53855609893799 3.53369331359863 0 0.0983 0.0983 0.0981 0.0000 0x00400000 0.0181884765625 0x10000000 0.00196552276611328 0x7fffc000 0.00390625 0x00400140 0x7fff8000 0 0.00196504592895508 32968k 0.00538492202758789 429.180583953857 0.0000 
