#set_size_in_keys sim_num_insn sim_num_refs sim_elapsed_time sim_inst_rate sim_num_branches sim_IPB bpred_2lev.lookups bpred_2lev.updates bpred_2lev.addr_hits bpred_2lev.dir_hits bpred_2lev.misses bpred_2lev.jr_hits bpred_2lev.jr_seen bpred_2lev.jr_non_ras_hits.PP bpred_2lev.jr_non_ras_seen.PP bpred_2lev.bpred_addr_rate bpred_2lev.bpred_dir_rate bpred_2lev.bpred_jr_rate bpred_2lev.bpred_jr_non_ras_rate.PP bpred_2lev.retstack_pushes bpred_2lev.retstack_pops bpred_2lev.used_ras.PP bpred_2lev.ras_hits.PP bpred_2lev.ras_rate.PP
4096 16372.6374511719 6138.19262695312 0.001953125 8382790.3750 2557.34838867188 6.4022 2557.34838867188 2557.34838867188 2090.96020507812 2090.98413085938 466.3642578125 0.013427734375 0.013671875 0 0 0.8176 0.8176 0.9821 <error: 0.01416015625 0.013671875 0.013671875 0.013427734375 0.9821 
8192 32732.4477539062 12269.1231689453 0.0040283203125 8125582.1818 5115.63366699219 6.3985 5115.63366699219 5115.63366699219 4041.49328613281 4041.50573730469 1074.1279296875 0.0067138671875 0.0068359375 0 0 0.7900 0.7900 0.9821 <error: 0.007080078125 0.0068359375 0.0068359375 0.0067138671875 0.9821 
16384 65626.8999633789 24642.4032592773 0.00799560546875 8207871.2137 10235.0623168945 6.4120 10235.0623168945 10235.0623168945 7896.97705078125 7896.98266601562 2338.07965087891 0.00335693359375 0.00341796875 0 0 0.7716 0.7716 0.9821 <error: 0.0035400390625 0.00341796875 0.00341796875 0.00335693359375 0.9821 
32768 130979.160522461 49097.2925109863 0.016204833984375 8082721.5292 20474.2979125977 6.3972 20474.2979125977 20474.2979125977 15592.4723815918 15592.4754333496 4881.82247924805 0.001678466796875 0.001708984375 0 0 0.7616 0.7616 0.9821 <error: 0.00177001953125 0.001708984375 0.001708984375 0.001678466796875 0.9821 
65536 262014.3671875 98226.1807403564 0.0288848876953125 9070984.4522 40953.5221710205 6.3978 40953.5221710205 40953.5221710205 31249.5246124268 31249.5261535645 9703.99601745605 0.0008392333984375 0.0008544921875 0 0 0.7630 0.7630 0.9821 <error: 0.000885009765625 0.0008544921875 0.0008544921875 0.0008392333984375 0.9821 
