#set_size_in_keys sim_num_insn sim_num_refs sim_elapsed_time sim_inst_rate sim_num_branches sim_IPB bpred_2lev.lookups bpred_2lev.updates bpred_2lev.addr_hits bpred_2lev.dir_hits bpred_2lev.misses bpred_2lev.jr_hits bpred_2lev.jr_seen bpred_2lev.jr_non_ras_hits.PP bpred_2lev.jr_non_ras_seen.PP bpred_2lev.bpred_addr_rate bpred_2lev.bpred_dir_rate bpred_2lev.bpred_jr_rate bpred_2lev.bpred_jr_non_ras_rate.PP bpred_2lev.retstack_pushes bpred_2lev.retstack_pops bpred_2lev.used_ras.PP bpred_2lev.ras_hits.PP bpred_2lev.ras_rate.PP
4096 16372.6374511719 6138.19262695312 0.001953125 8382790.3750 2557.34838867188 6.4022 2557.34838867188 2557.34838867188 1927.13916015625 1927.166015625 630.182373046875 0.013427734375 0.013671875 0 0 0.7536 0.7536 0.9821 <error: 0.01416015625 0.013671875 0.013671875 0.013427734375 0.9821 
8192 32732.4477539062 12269.1231689453 0.0040283203125 8125582.1818 5115.63366699219 6.3985 5115.63366699219 5115.63366699219 3806.7509765625 3806.76525878906 1308.86840820312 0.0067138671875 0.0068359375 0 0 0.7441 0.7441 0.9821 <error: 0.007080078125 0.0068359375 0.0068359375 0.0067138671875 0.9821 
16384 65626.8999633789 24642.4032592773 0.0081787109375 8024112.9030 10235.0623168945 6.4120 10235.0623168945 10235.0623168945 7609.55743408203 7609.56451416016 2625.49780273438 0.00335693359375 0.00341796875 0 0 0.7435 0.7435 0.9821 <error: 0.0035400390625 0.00341796875 0.00341796875 0.00335693359375 0.9821 
32768 130979.160522461 49097.2925109863 0.016265869140625 8052392.3677 20474.2979125977 6.3972 20474.2979125977 20474.2979125977 15213.8223571777 15213.8258361816 5260.47207641602 0.001678466796875 0.001708984375 0 0 0.7431 0.7431 0.9821 <error: 0.00177001953125 0.001708984375 0.001708984375 0.001678466796875 0.9821 
65536 262014.3671875 98226.1807403564 0.0301666259765625 8685570.8488 40953.5221710205 6.3978 40953.5221710205 40953.5221710205 30535.0425109863 30535.0442047119 10418.4779663086 0.0008392333984375 0.0008544921875 0 0 0.7456 0.7456 0.9821 <error: 0.000885009765625 0.0008544921875 0.0008544921875 0.0008392333984375 0.9821 
