#set_size_in_keys sim_num_insn sim_num_refs sim_elapsed_time sim_inst_rate il1.accesses il1.hits il1.misses il1.replacements il1.writebacks il1.invalidations il1.miss_rate il1.repl_rate il1.wb_rate il1.inv_rate dl1.accesses dl1.hits dl1.misses dl1.replacements dl1.writebacks dl1.invalidations dl1.miss_rate dl1.repl_rate dl1.wb_rate dl1.inv_rate dl2.accesses dl2.hits dl2.misses dl2.replacements dl2.writebacks dl2.invalidations dl2.miss_rate dl2.repl_rate dl2.wb_rate dl2.inv_rate itlb.accesses itlb.hits itlb.misses itlb.replacements itlb.writebacks itlb.invalidations itlb.miss_rate itlb.repl_rate itlb.wb_rate itlb.inv_rate dtlb.accesses dtlb.hits dtlb.misses dtlb.replacements dtlb.writebacks dtlb.invalidations dtlb.miss_rate dtlb.repl_rate dtlb.wb_rate dtlb.inv_rate ld_text_base ld_text_size ld_data_base ld_data_size ld_stack_base ld_stack_size ld_prog_entry ld_environ_base ld_target_big_endian mem.page_count mem.page_mem mem.ptab_misses mem.ptab_accesses mem.ptab_miss_rate
4096 16372.6374511719 6138.19262695312 0.0048828125 3353116.1500 16372.6374511719 16372.5458984375 0.091552734375 0.040771484375 0 0 0.0000 0.0000 0.0000 0.0000 6142.21215820312 6013.40576171875 128.806396484375 128.743896484375 122.2802734375 0 0.0210 0.0210 0.0199 0.0000 251.17822265625 250.872314453125 0.305908203125 0.01904296875 0.000732421875 0 0.0012 0.0001 0.0000 0.0000 16372.6374511719 16372.634765625 0.002685546875 0 0 0 0.0000 0.0000 0.0000 0.0000 6142.21215820312 6142.20947265625 0.002685546875 0 0 0 0.0000 0.0000 0.0000 0.0000 0x00400000 18.01171875 0x10000000 2.0126953125 0x7fffc000 4 0x00400140 0x7fff8000 0 0.00732421875 120k 0.00732421875 77886.7099609375 0.0000 
8192 32732.4477539062 12269.1231689453 0.0096435546875 3394230.5316 32732.4477539062 32732.4018554688 0.0458984375 0.0203857421875 0 0 0.0000 0.0000 0.0000 0.0000 12273.1329345703 11824.4411621094 448.691772460938 448.660522460938 417.758666992188 0 0.0366 0.0366 0.0340 0.0000 866.496337890625 866.281127929688 0.2152099609375 0.0091552734375 0.0001220703125 0 0.0002 0.0000 0.0000 0.0000 32732.4477539062 32732.4464111328 0.0013427734375 0 0 0 0.0000 0.0000 0.0000 0.0000 12273.1329345703 12273.1311035156 0.0018310546875 0 0 0 0.0000 0.0000 0.0000 0.0000 0x00400000 9.009765625 0x10000000 1.00634765625 0x7fffc000 2 0x00400140 0x7fff8000 0 0.004150390625 136k 0.004150390625 155531.948242188 0.0000 
16384 65626.8999633789 24642.4032592773 0.01953125 3360097.2781 65626.8999633789 65626.877746582 0.022216796875 0.00970458984375 0 0 0.0000 0.0000 0.0000 0.0000 24646.4081420898 23653.760559082 992.647583007812 992.631958007812 910.470642089844 0 0.0403 0.0403 0.0369 0.0000 1903.14044189453 1902.97094726562 0.16949462890625 0.00457763671875 0 0 0.0001 0.0000 0.0000 0.0000 65626.8999633789 65626.8992919922 0.00067138671875 0 0 0 0.0000 0.0000 0.0000 0.0000 24646.4081420898 24646.4067382812 0.00140380859375 0 0 0 0.0000 0.0000 0.0000 0.0000 0x00400000 4.505859375 0x10000000 0.503173828125 0x7fffc000 1 0x00400140 0x7fff8000 0 0.0025634765625 168k 0.0025634765625 311828.367675781 0.0000 
32768 130979.160522461 49097.2925109863 0.038970947265625 3360943.7212 130979.160522461 130979.149017334 0.011505126953125 0.005096435546875 0 0 0.0000 0.0000 0.0000 0.0000 49101.2949523926 47068.6921081543 2032.60284423828 2032.59503173828 1841.95742797852 0 0.0414 0.0414 0.0375 0.0000 3874.57177734375 3874.42425537109 0.14752197265625 0.00225830078125 0 0 0.0000 0.0000 0.0000 0.0000 130979.160522461 130979.160186768 0.000335693359375 0 0 0 0.0000 0.0000 0.0000 0.0000 49101.2949523926 49101.293762207 0.001190185546875 0 0 0 0.0000 0.0000 0.0000 0.0000 0x00400000 2.25341796875 0x10000000 0.2515869140625 0x7fffc000 0.5 0x00400140 0x7fff8000 0 0.00177001953125 232k 0.00177001953125 622133.210693359 0.0000 
65536 262014.3671875 98226.1807403564 0.0699310302734375 3746753.9969 262014.3671875 262014.361434937 0.0057525634765625 0.0025482177734375 0 0 0.0000 0.0000 0.0000 0.0000 98230.1819610596 94141.7132720947 4088.46868896484 4088.46478271484 3686.49661254883 0 0.0416 0.0416 0.0375 0.0000 7774.97105407715 7774.83479309082 0.136260986328125 0.001129150390625 0 0 0.0000 0.0000 0.0000 0.0000 262014.3671875 262014.367019653 0.0001678466796875 0 0 0 0.0000 0.0000 0.0000 0.0000 98230.1819610596 98230.1808776855 0.0010833740234375 0 0 0 0.0000 0.0000 0.0000 0.0000 0x00400000 1.126708984375 0x10000000 0.12579345703125 0x7fffc000 0.25 0x00400140 0x7fff8000 0 0.001373291015625 360k 0.001373291015625 1244524.82199097 0.0000 
