#set_size_in_keys sim_num_insn sim_num_refs sim_elapsed_time sim_inst_rate sim_num_branches sim_IPB bpred_2lev.lookups bpred_2lev.updates bpred_2lev.addr_hits bpred_2lev.dir_hits bpred_2lev.misses bpred_2lev.jr_hits bpred_2lev.jr_seen bpred_2lev.jr_non_ras_hits.PP bpred_2lev.jr_non_ras_seen.PP bpred_2lev.bpred_addr_rate bpred_2lev.bpred_dir_rate bpred_2lev.bpred_jr_rate bpred_2lev.bpred_jr_non_ras_rate.PP bpred_2lev.retstack_pushes bpred_2lev.retstack_pops bpred_2lev.used_ras.PP bpred_2lev.ras_hits.PP bpred_2lev.ras_rate.PP
4096 16372.6374511719 6138.19262695312 0.002197265625 7451369.2222 2557.34838867188 6.4022 2557.34838867188 2557.34838867188 2030.50756835938 2030.533203125 526.815185546875 0.013427734375 0.013671875 0 0 0.7940 0.7940 0.9821 <error: 0.01416015625 0.013671875 0.013671875 0.013427734375 0.9821 
8192 32732.4477539062 12269.1231689453 0.0040283203125 8125582.1818 5115.63366699219 6.3985 5115.63366699219 5115.63366699219 3942.64538574219 3942.65893554688 1172.97473144531 0.0067138671875 0.0068359375 0 0 0.7707 0.7707 0.9821 <error: 0.007080078125 0.0068359375 0.0068359375 0.0067138671875 0.9821 
16384 65626.8999633789 24642.4032592773 0.00799560546875 8207871.2137 10235.0623168945 6.4120 10235.0623168945 10235.0623168945 7773.77758789062 7773.78411865234 2461.27819824219 0.00335693359375 0.00341796875 0 0 0.7595 0.7595 0.9821 <error: 0.0035400390625 0.00341796875 0.00341796875 0.00335693359375 0.9821 
32768 130979.160522461 49097.2925109863 0.016082763671875 8144070.4592 20474.2979125977 6.3972 20474.2979125977 20474.2979125977 15422.1405944824 15422.1438903809 5052.1540222168 0.001678466796875 0.001708984375 0 0 0.7532 0.7532 0.9821 <error: 0.00177001953125 0.001708984375 0.001708984375 0.001678466796875 0.9821 
65536 262014.3671875 98226.1807403564 0.0288238525390625 9090192.4659 40953.5221710205 6.3978 40953.5221710205 40953.5221710205 30920.9320831299 30920.9337158203 10032.5884552002 0.0008392333984375 0.0008544921875 0 0 0.7550 0.7550 0.9821 <error: 0.000885009765625 0.0008544921875 0.0008544921875 0.0008392333984375 0.9821 
