#set_size_in_keys sim_num_insn sim_num_refs sim_elapsed_time sim_inst_rate il1.accesses il1.hits il1.misses il1.replacements il1.writebacks il1.invalidations il1.miss_rate il1.repl_rate il1.wb_rate il1.inv_rate dl1.accesses dl1.hits dl1.misses dl1.replacements dl1.writebacks dl1.invalidations dl1.miss_rate dl1.repl_rate dl1.wb_rate dl1.inv_rate dl2.accesses dl2.hits dl2.misses dl2.replacements dl2.writebacks dl2.invalidations dl2.miss_rate dl2.repl_rate dl2.wb_rate dl2.inv_rate itlb.accesses itlb.hits itlb.misses itlb.replacements itlb.writebacks itlb.invalidations itlb.miss_rate itlb.repl_rate itlb.wb_rate itlb.inv_rate dtlb.accesses dtlb.hits dtlb.misses dtlb.replacements dtlb.writebacks dtlb.invalidations dtlb.miss_rate dtlb.repl_rate dtlb.wb_rate dtlb.inv_rate ld_text_base ld_text_size ld_data_base ld_data_size ld_stack_base ld_stack_size ld_prog_entry ld_environ_base ld_target_big_endian mem.page_count mem.page_mem mem.ptab_misses mem.ptab_accesses mem.ptab_miss_rate
4096 183.880859375 50.294677734375 0.002685546875 68470.5455 183.880859375 183.7685546875 0.1123046875 0.0498046875 0 0 0.0006 0.0003 0.0000 0.0000 54.314208984375 51.449951171875 2.8642578125 2.8017578125 1.5751953125 0 0.0527 0.0516 0.0290 0.0000 4.5517578125 4.09814453125 0.45361328125 0 0 0 0.0997 0.0000 0.0000 0.0000 183.880859375 183.878173828125 0.002685546875 0 0 0 0.0000 0.0000 0.0000 0.0000 54.314208984375 54.310302734375 0.00390625 0 0 0 0.0001 0.0000 0.0000 0.0000 0x00400000 19.1484375 0x10000000 2.0126953125 0x7fffc000 4 0x00400140 0x7fff8000 0 0.0087890625 144k 0.0087890625 962.70849609375 0.0000 
8192 201.761840820312 56.266357421875 0.001953125 103302.0625 201.761840820312 201.701904296875 0.0599365234375 0.0286865234375 0 0 0.0003 0.0001 0.0000 0.0000 60.276123046875 56.9676513671875 3.3084716796875 3.2772216796875 1.7884521484375 0 0.0549 0.0544 0.0297 0.0000 5.1568603515625 4.8023681640625 0.3544921875 0 0 0 0.0687 0.0000 0.0000 0.0000 201.761840820312 201.760498046875 0.0013427734375 0 0 0 0.0000 0.0000 0.0000 0.0000 60.276123046875 60.273193359375 0.0029296875 0 0 0 0.0000 0.0000 0.0000 0.0000 0x00400000 9.578125 0x10000000 1.00634765625 0x7fffc000 2 0x00400140 0x7fff8000 0 0.00537109375 176k 0.00537109375 986.9013671875 0.0000 
16384 215.359924316406 58.5425415039062 0.00164794921875 130683.5926 215.359924316406 215.331848144531 0.028076171875 0.012451171875 0 0 0.0001 0.0001 0.0000 0.0000 62.5474243164062 59.2673950195312 3.280029296875 3.264404296875 1.769775390625 0 0.0524 0.0522 0.0283 0.0000 5.077880859375 4.77703857421875 0.30084228515625 0 0 0 0.0592 0.0000 0.0000 0.0000 215.359924316406 215.359252929688 0.00067138671875 0 0 0 0.0000 0.0000 0.0000 0.0000 62.5474243164062 62.5449829101562 0.00244140625 0 0 0 0.0000 0.0000 0.0000 0.0000 0x00400000 4.7900390625 0x10000000 0.503173828125 0x7fffc000 1 0x00400140 0x7fff8000 0 0.003662109375 240k 0.003662109375 1016.19128417969 0.0000 
32768 234.041931152344 64.9000854492188 0.00152587890625 153381.7200 234.041931152344 234.026885986328 0.015045166015625 0.007232666015625 0 0 0.0001 0.0000 0.0000 0.0000 68.9025268554688 65.1364440917969 3.76608276367188 3.75827026367188 2.01055908203125 0 0.0547 0.0545 0.0292 0.0000 5.79168701171875 5.5155029296875 0.27618408203125 0 0 0 0.0477 0.0000 0.0000 0.0000 234.041931152344 234.041595458984 0.000335693359375 0 0 0 0.0000 0.0000 0.0000 0.0000 68.9025268554688 68.9003295898438 0.002197265625 0 0 0 0.0000 0.0000 0.0000 0.0000 0x00400000 2.3955078125 0x10000000 0.2515869140625 0x7fffc000 0.5 0x00400140 0x7fff8000 0 0.0028076171875 368k 0.0028076171875 1088.80407714844 0.0000 
65536 248.078170776367 67.3703460693359 0.00140380859375 176717.9457 248.078170776367 248.071105957031 0.0070648193359375 0.0031585693359375 0 0 0.0000 0.0000 0.0000 0.0000 71.3715667724609 67.6125946044922 3.75897216796875 3.75506591796875 2.00590515136719 0 0.0527 0.0526 0.0281 0.0000 5.77194213867188 5.50917053222656 0.262771606445312 0 0 0 0.0455 0.0000 0.0000 0.0000 248.078170776367 248.078002929688 0.0001678466796875 0 0 0 0.0000 0.0000 0.0000 0.0000 71.3715667724609 71.3675079345703 0.004058837890625 0.002105712890625 0.001190185546875 0 0.0001 0.0000 0.0000 0.0000 0x00400000 1.19775390625 0x10000000 0.12579345703125 0x7fffc000 0.25 0x00400140 0x7fff8000 0 0.00238037109375 624k 0.00238037109375 1142.47146606445 0.0000 
131072 266.934944152832 73.8187561035156 0.00130462646484375 204606.4152 266.934944152832 266.931190490723 0.003753662109375 0.001800537109375 0 0 0.0000 0.0000 0.0000 0.0000 77.8193664550781 73.5638809204102 4.25548553466797 4.25353240966797 2.25356292724609 0 0.0547 0.0547 0.0290 0.0000 6.51280212402344 6.25626373291016 0.256538391113281 0 0 0 0.0394 0.0000 0.0000 0.0000 266.934944152832 266.934860229492 8.392333984375e-05 0 0 0 0.0000 0.0000 0.0000 0.0000 77.8193664550781 77.7869110107422 0.0324554443359375 0.0314788818359375 0.0164871215820312 0 0.0004 0.0004 0.0002 0.0000 0x00400000 0.598876953125 0x10000000 0.062896728515625 0x7fffc000 0.125 0x00400140 0x7fff8000 0 0.002166748046875 1136k 0.002166748046875 1227.08633422852 0.0000 
262144 280.94783782959 76.3107261657715 0.0011138916015625 252221.8836 280.94783782959 280.946075439453 0.00176239013671875 0.00078582763671875 0 0 0.0000 0.0000 0.0000 0.0000 80.3110313415527 76.0573234558105 4.25370788574219 4.25273132324219 2.25241470336914 0 0.0530 0.0530 0.0280 0.0000 6.50788497924805 6.25469589233398 0.253189086914062 0 0 0 0.0389 0.0000 0.0000 0.0000 280.94783782959 280.94779586792 4.1961669921875e-05 0 0 0 0.0000 0.0000 0.0000 0.0000 80.3110313415527 80.2776184082031 0.0334129333496094 0.0329246520996094 0.0174484252929688 0 0.0004 0.0004 0.0002 0.0000 0x00400000 0.2994384765625 0x10000000 0.0314483642578125 0x7fffc000 0.0625 0x00400140 0x7fff8000 0 0.0020599365234375 2160k 0.0020599365234375 1286.26732635498 0.0000 
524288 299.953508377075 82.8175010681152 0.000772476196289062 388301.2963 299.953508377075 299.952556610107 0.000951766967773438 0.000463485717773438 0 0 0.0000 0.0000 0.0000 0.0000 86.8176536560059 82.0625896453857 4.75506401062012 4.75457572937012 2.50333023071289 0 0.0548 0.0548 0.0288 0.0000 7.25934600830078 6.974853515625 0.284492492675781 0.0344924926757812 0.0338554382324219 0 0.0392 0.0048 0.0047 0.0000 299.953508377075 299.95348739624 2.09808349609375e-05 0 0 0 0.0000 0.0000 0.0000 0.0000 86.8176536560059 86.7803726196289 0.0372810363769531 0.0370368957519531 0.0195217132568359 0 0.0004 0.0004 0.0002 0.0000 0x00400000 0.14971923828125 0x10000000 0.0157241821289062 0x7fffc000 0.03125 0x00400140 0x7fff8000 0 0.00201797485351562 4232k 0.00592803955078125 1374.37629699707 0.0000 
1048576 313.952558517456 85.3073244094849 0.000435829162597656 720356.9322 313.952558517456 313.952082633972 0.000475883483886719 0.000231742858886719 0 0 0.0000 0.0000 0.0000 0.0000 89.3074007034302 84.5538806915283 4.75352001190186 4.75327587127686 2.50230121612549 0 0.0532 0.0532 0.0280 0.0000 7.25629711151123 6.37971878051758 0.876578330993652 0.751578330993652 0.563655853271484 0 0.1208 0.1036 0.0777 0.0000 313.952558517456 313.952548027039 1.04904174804688e-05 0 0 0 0.0000 0.0000 0.0000 0.0000 89.3074007034302 89.2701425552368 0.0372581481933594 0.0371360778808594 0.019566535949707 0 0.0004 0.0004 0.0002 0.0000 0x00400000 0.074859619140625 0x10000000 0.00786209106445312 0x7fffc000 0.015625 0x00400140 0x7fff8000 0 0.00198554992675781 8328k 0.100555419921875 1434.88851356506 0.0001 
2097152 333.006491184235 91.8147306442261 0.000272274017333984 1223056.4431 333.006491184235 333.006253242493 0.000237941741943359 0.000115871429443359 0 0 0.0000 0.0000 0.0000 0.0000 95.8147687911987 90.5616502761841 5.25311851501465 5.25299644470215 2.75215816497803 0 0.0548 0.0548 0.0287 0.0000 8.00551462173462 6.62932872772217 1.37618589401245 1.31368589401245 0.844695091247559 0 0.1719 0.1641 0.1055 0.0000 333.006491184235 333.006485939026 5.24520874023438e-06 0 0 0 0.0000 0.0000 0.0000 0.0000 95.8147687911987 95.7736086845398 0.0411601066589355 0.0410990715026855 0.0215463638305664 0 0.0004 0.0004 0.0002 0.0000 0x00400000 0.0374298095703125 0x10000000 0.00393104553222656 0x7fffc000 0.0078125 0x00400140 0x7fff8000 0 0.00197219848632812 16544k 0.0535626411437988 1523.88724136353 0.0000 
4194304 347.009273529053 94.3124902248383 0.000193119049072266 1796867.1407 347.009273529053 347.009154558182 0.00011897087097168 5.79357147216797e-05 0 0 0.0000 0.0000 0.0000 0.0000 98.3125092983246 93.0595936775208 5.25291562080383 5.25285458564758 2.75208115577698 0 0.0534 0.0534 0.0280 0.0000 8.00511574745178 6.62915539741516 1.37596035003662 1.34471035003662 0.860214471817017 0 0.1719 0.1680 0.1075 0.0000 347.009273529053 347.009270906448 2.62260437011719e-06 0 0 0 0.0000 0.0000 0.0000 0.0000 98.3125092983246 98.2713534832001 0.0411558151245117 0.0411252975463867 0.0215590000152588 0 0.0004 0.0004 0.0002 0.0000 0x00400000 0.0187149047851562 0x10000000 0.00196552276611328 0x7fffc000 0.00390625 0x00400140 0x7fff8000 0 0.00196552276611328 32976k 0.0294218063354492 1584.77798223495 0.0000 
