#set_size_in_keys sim_num_insn sim_num_refs sim_elapsed_time sim_inst_rate sim_num_branches sim_IPB bpred_2lev.lookups bpred_2lev.updates bpred_2lev.addr_hits bpred_2lev.dir_hits bpred_2lev.misses bpred_2lev.jr_hits bpred_2lev.jr_seen bpred_2lev.jr_non_ras_hits.PP bpred_2lev.jr_non_ras_seen.PP bpred_2lev.bpred_addr_rate bpred_2lev.bpred_dir_rate bpred_2lev.bpred_jr_rate bpred_2lev.bpred_jr_non_ras_rate.PP bpred_2lev.retstack_pushes bpred_2lev.retstack_pops bpred_2lev.used_ras.PP bpred_2lev.ras_hits.PP bpred_2lev.ras_rate.PP
4096 248.56640625 68.37646484375 0.000244140625 1018128.0000 41.98974609375 5.9197 41.98974609375 41.98974609375 33.466064453125 33.49755859375 8.4921875 1.014404296875 1.014404296875 0 0 0.7970 0.7978 1.0000 <error: 1.014892578125 1.014404296875 1.014404296875 1.014404296875 1.0000 
8192 267.187377929688 73.3057861328125 0.0001220703125 2188799.0000 45.24609375 5.9052 45.24609375 45.24609375 36.3819580078125 36.3994140625 8.8466796875 1.0081787109375 1.00830078125 0 0 0.8041 0.8045 0.9999 <error: 1.008544921875 1.00830078125 1.00830078125 1.0081787109375 0.9999 
16384 288.611877441406 79.0228271484375 6.103515625e-05 4728617.0000 48.9295654296875 5.8985 48.9295654296875 48.9295654296875 39.4531860351562 39.4618530273438 9.46771240234375 1.00408935546875 1.004150390625 0 0 0.8063 0.8065 0.9999 <error: 1.0042724609375 1.004150390625 1.004150390625 1.00408935546875 0.9999 
32768 305.22216796875 83.4243469238281 3.0517578125e-05 10001520.0000 51.72607421875 5.9007 51.72607421875 51.72607421875 41.2913818359375 41.2955627441406 10.4305114746094 1.00204467773438 1.0020751953125 0 0 0.7983 0.7984 1.0000 <error: 1.00213623046875 1.0020751953125 1.0020751953125 1.00204467773438 1.0000 
65536 324.971206665039 88.8230895996094 4.57763671875e-05 7099104.3333 55.1262664794922 5.8950 55.1262664794922 55.1262664794922 44.1916351318359 44.1936950683594 10.9325714111328 1.00102233886719 1.00103759765625 0 0 0.8016 0.8017 1.0000 <error: 1.00106811523438 1.00103759765625 1.00103759765625 1.00102233886719 1.0000 
131072 346.801727294922 94.772590637207 4.57763671875e-05 7575999.3333 58.8560638427734 5.8924 58.8560638427734 58.8560638427734 47.2887725830078 47.2898406982422 11.5662231445312 1.00051116943359 1.00051879882812 0 0 0.8035 0.8035 1.0000 <error: 1.00053405761719 1.00051879882812 1.00051879882812 1.00051116943359 1.0000 
262144 363.842060089111 99.3352508544922 4.57763671875e-05 7948251.0833 61.7152061462402 5.8955 61.7152061462402 61.7152061462402 49.165153503418 49.1656608581543 12.5495452880859 1.0002555847168 1.00025939941406 0 0 0.7966 0.7967 1.0000 <error: 1.00026702880859 1.00025939941406 1.00025939941406 1.0002555847168 1.0000 
524288 383.613208770752 104.767292022705 5.14984130859375e-05 7449029.7037 65.1130104064941 5.8915 65.1130104064941 65.1130104064941 52.0240268707275 52.0242862701416 13.0887241363525 1.0001277923584 1.00012969970703 0 0 0.7990 0.7990 1.0000 <error: 1.0001335144043 1.00012969970703 1.00012969970703 1.0001277923584 1.0000 
1048576 405.502168655396 110.759816169739 5.43594360351562e-05 7459646.3509 68.8550806045532 5.8892 68.8550806045532 68.8550806045532 55.1882181167603 55.188364982605 13.6667156219482 1.00006675720215 1.00006771087646 0 9.5367431640625e-07 0.8015 0.8015 1.0000 0.0000 1.00006866455078 1.00006675720215 1.00006675720215 1.00006675720215 1.0000 
2097152 422.559717655182 115.333509922028 5.67436218261719e-05 7446823.1681 71.715434551239 5.8922 71.715434551239 71.715434551239 57.0503439903259 57.0504159927368 14.6650185585022 1.00003337860107 1.00003385543823 0 4.76837158203125e-07 0.7955 0.7955 1.0000 0.0000 1.00003433227539 1.00003337860107 1.00003337860107 1.00003337860107 1.0000 
4194304 442.362344503403 120.779492855072 5.98430633544922e-05 7392040.4422 75.1203103065491 5.8887 75.1203103065491 75.1203103065491 59.9429762363434 59.9430122375488 15.1772980690002 1.00001668930054 1.00001692771912 0 2.38418579101562e-07 0.7980 0.7980 1.0000 0.0000 1.0000171661377 1.00001668930054 1.00001668930054 1.00001668930054 1.0000 
