#set_size_in_keys sim_num_insn sim_num_refs sim_elapsed_time sim_inst_rate il1.accesses il1.hits il1.misses il1.replacements il1.writebacks il1.invalidations il1.miss_rate il1.repl_rate il1.wb_rate il1.inv_rate dl1.accesses dl1.hits dl1.misses dl1.replacements dl1.writebacks dl1.invalidations dl1.miss_rate dl1.repl_rate dl1.wb_rate dl1.inv_rate dl2.accesses dl2.hits dl2.misses dl2.replacements dl2.writebacks dl2.invalidations dl2.miss_rate dl2.repl_rate dl2.wb_rate dl2.inv_rate itlb.accesses itlb.hits itlb.misses itlb.replacements itlb.writebacks itlb.invalidations itlb.miss_rate itlb.repl_rate itlb.wb_rate itlb.inv_rate dtlb.accesses dtlb.hits dtlb.misses dtlb.replacements dtlb.writebacks dtlb.invalidations dtlb.miss_rate dtlb.repl_rate dtlb.wb_rate dtlb.inv_rate ld_text_base ld_text_size ld_data_base ld_data_size ld_stack_base ld_stack_size ld_prog_entry ld_environ_base ld_target_big_endian mem.page_count mem.page_mem mem.ptab_misses mem.ptab_accesses mem.ptab_miss_rate
4096 189.5185546875 55.93798828125 0.000244140625 776268.0000 189.5185546875 189.393310546875 0.125244140625 0.06640625 0 0 0.0007 0.0004 0.0000 0.0000 59.95751953125 55.970458984375 3.987060546875 3.924560546875 2.05908203125 0 0.0665 0.0655 0.0343 0.0000 6.17138671875 5.697509765625 0.473876953125 0.071044921875 0.03271484375 0 0.0768 0.0115 0.0053 0.0000 189.5185546875 189.515625 0.0029296875 0 0 0 0.0000 0.0000 0.0000 0.0000 59.95751953125 59.95361328125 0.00390625 0 0 0 0.0001 0.0000 0.0000 0.0000 0x00400000 20.890625 0x10000000 2.0126953125 0x7fffc000 4 0x00400140 0x7fff8000 0 0.009033203125 148k 0.009033203125 1006.9990234375 0.0000 
8192 207.87744140625 62.3851318359375 0.0001220703125 1702932.0000 207.87744140625 207.81201171875 0.0654296875 0.0352783203125 0 0 0.0003 0.0002 0.0000 0.0000 66.3948974609375 61.9444580078125 4.450439453125 4.419189453125 2.2615966796875 0 0.0670 0.0666 0.0341 0.0000 6.7774658203125 6.4119873046875 0.365478515625 0.0408935546875 0.02197265625 0 0.0539 0.0060 0.0032 0.0000 207.87744140625 207.8759765625 0.00146484375 0 0 0 0.0000 0.0000 0.0000 0.0000 66.3948974609375 66.3919677734375 0.0029296875 0 0 0 0.0000 0.0000 0.0000 0.0000 0x00400000 10.44921875 0x10000000 1.00634765625 0x7fffc000 2 0x00400140 0x7fff8000 0 0.0054931640625 180k 0.0054931640625 1028.82788085938 0.0000 
16384 221.975646972656 65.159912109375 6.103515625e-05 3636849.0000 221.975646972656 221.9443359375 0.03131103515625 0.0164794921875 0 0 0.0001 0.0001 0.0000 0.0000 69.164794921875 64.6976318359375 4.4671630859375 4.4515380859375 2.26806640625 0 0.0646 0.0644 0.0328 0.0000 6.76654052734375 6.46051025390625 0.3060302734375 0.01763916015625 0.0084228515625 0 0.0452 0.0026 0.0012 0.0000 221.975646972656 221.974914550781 0.000732421875 0 0 0 0.0000 0.0000 0.0000 0.0000 69.164794921875 69.162353515625 0.00244140625 0 0 0 0.0000 0.0000 0.0000 0.0000 0x00400000 5.2255859375 0x10000000 0.503173828125 0x7fffc000 1 0x00400140 0x7fff8000 0 0.00372314453125 244k 0.00372314453125 1058.50219726562 0.0000 
32768 241.149475097656 72.008544921875 6.103515625e-05 3950993.0000 241.149475097656 241.133087158203 0.016387939453125 0.008819580078125 0 0 0.0001 0.0000 0.0000 0.0000 76.010986328125 71.02001953125 4.990966796875 4.983154296875 2.51568603515625 0 0.0657 0.0656 0.0331 0.0000 7.52304077148438 7.24420166015625 0.278839111328125 0.009368896484375 0.004791259765625 0 0.0371 0.0012 0.0006 0.0000 241.149475097656 241.149108886719 0.0003662109375 0 0 0 0.0000 0.0000 0.0000 0.0000 76.010986328125 76.0087890625 0.002197265625 0 0 0 0.0000 0.0000 0.0000 0.0000 0x00400000 2.61328125 0x10000000 0.2515869140625 0x7fffc000 0.5 0x00400140 0x7fff8000 0 0.002838134765625 372k 0.002838134765625 1132.7578125 0.0000 
65536 255.694488525391 74.9871368408203 6.103515625e-05 4189298.5000 255.694488525391 255.686614990234 0.00787353515625 0.004150390625 0 0 0.0000 0.0000 0.0000 0.0000 78.9883575439453 73.9548645019531 5.03349304199219 5.02958679199219 2.52401733398438 0 0.0637 0.0637 0.0320 0.0000 7.56538391113281 7.30128479003906 0.26409912109375 0.0043792724609375 0.0020751953125 0 0.0349 0.0006 0.0003 0.0000 255.694488525391 255.694305419922 0.00018310546875 0 0 0 0.0000 0.0000 0.0000 0.0000 78.9883575439453 78.9845123291016 0.00384521484375 0.00189208984375 0.001068115234375 0 0.0000 0.0000 0.0000 0.0000 0x00400000 1.306640625 0x10000000 0.12579345703125 0x7fffc000 0.25 0x00400140 0x7fff8000 0 0.0023956298828125 628k 0.0023956298828125 1188.82363891602 0.0000 
131072 275.044746398926 81.9288177490234 6.866455078125e-05 4005629.4444 275.044746398926 275.040649414062 0.00409698486328125 0.00220489501953125 0 0 0.0000 0.0000 0.0000 0.0000 85.9294281005859 80.3650436401367 5.56438446044922 5.56243133544922 2.77876281738281 0 0.0648 0.0647 0.0323 0.0000 8.34724426269531 8.09002685546875 0.257217407226562 0.002349853515625 0.00119781494140625 0 0.0308 0.0003 0.0001 0.0000 275.044746398926 275.044654846191 9.1552734375e-05 0 0 0 0.0000 0.0000 0.0000 0.0000 85.9294281005859 85.897087097168 0.0323410034179688 0.0313644409179688 0.0164337158203125 0 0.0004 0.0004 0.0002 0.0000 0x00400000 0.6533203125 0x10000000 0.062896728515625 0x7fffc000 0.125 0x00400140 0x7fff8000 0 0.00217437744140625 1140k 0.00217437744140625 1276.07232666016 0.0000 
262144 289.559871673584 84.9228935241699 7.62939453125e-05 3795319.1500 289.559871673584 289.557903289795 0.0019683837890625 0.00103759765625 0 0 0.0000 0.0000 0.0000 0.0000 88.9231986999512 83.3175048828125 5.60569381713867 5.60471725463867 2.78776550292969 0 0.0630 0.0630 0.0314 0.0000 8.39542770385742 4.67978286743164 3.71564483642578 3.58234405517578 1.95024108886719 0 0.4426 0.4267 0.2323 0.0000 289.559871673584 289.559825897217 4.57763671875e-05 0 0 0 0.0000 0.0000 0.0000 0.0000 88.9231986999512 88.8898468017578 0.0333518981933594 0.0328636169433594 0.0174179077148438 0 0.0004 0.0004 0.0002 0.0000 0x00400000 0.32666015625 0x10000000 0.0314483642578125 0x7fffc000 0.0625 0x00400140 0x7fff8000 0 0.00206375122070312 2164k 0.00206375122070312 1338.10312652588 0.0000 
524288 409.396152496338 119.510377883911 0.000110626220703125 3700715.3448 409.396152496338 399.05167388916 10.3444786071777 10.3439922332764 0 0 0.0253 0.0253 0.0000 0.0000 123.510530471802 117.074462890625 6.43606758117676 6.43557929992676 3.32770347595215 0 0.0521 0.0521 0.0269 0.0000 20.1082496643066 15.9593238830566 4.14892578125 4.02392578125 2.14665603637695 0 0.2063 0.2001 0.1068 0.0000 409.396152496338 409.396127700806 2.47955322265625e-05 0 0 0 0.0000 0.0000 0.0000 0.0000 123.510530471802 123.473266601562 0.0372638702392578 0.0370197296142578 0.0195217132568359 0 0.0003 0.0003 0.0002 0.0000 0x00400000 0.163330078125 0x10000000 0.0157241821289062 0x7fffc000 0.03125 0x00400140 0x7fff8000 0 0.00201988220214844 4236k 0.00202560424804688 1885.61429214478 0.0000 
1048576 446.144903182983 129.928642272949 0.000118255615234375 3772716.4355 446.144903182983 435.644095420837 10.500807762146 10.500563621521 0 0 0.0235 0.0235 0.0000 0.0000 133.928718566895 127.47909450531 6.44962406158447 6.44937992095947 3.33503818511963 0 0.0482 0.0482 0.0249 0.0000 20.2854700088501 15.9388370513916 4.3466329574585 4.2841329574585 2.32435417175293 0 0.2143 0.2112 0.1146 0.0000 446.144903182983 446.144890785217 1.23977661132812e-05 0 0 0 0.0000 0.0000 0.0000 0.0000 133.928718566895 133.891441345215 0.0372772216796875 0.0371551513671875 0.0195674896240234 0 0.0003 0.0003 0.0001 0.0000 0x00400000 0.0816650390625 0x10000000 0.00786209106445312 0x7fffc000 0.015625 0x00400140 0x7fff8000 0 0.00198650360107422 8332k 0.100598335266113 2052.94136047363 0.0000 
2097152 476.097208976746 138.956603527069 0.000125885009765625 3782000.8106 476.097208976746 465.59680557251 10.5004034042358 10.5002813339233 0 0 0.0221 0.0221 0.0000 0.0000 142.956641674042 136.486796379089 6.46984529495239 6.46972322463989 3.34424352645874 0 0.0453 0.0453 0.0234 0.0000 20.314492225647 15.9625282287598 4.35196399688721 4.32071399688721 2.35420799255371 0 0.2142 0.2127 0.1159 0.0000 476.097208976746 476.097202777863 6.19888305664062e-06 0 0 0 0.0000 0.0000 0.0000 0.0000 142.956641674042 142.910668849945 0.0459728240966797 0.0459117889404297 0.0195932388305664 0 0.0003 0.0003 0.0001 0.0000 0x00400000 0.04083251953125 0x10000000 0.00393104553222656 0x7fffc000 0.0078125 0x00400140 0x7fff8000 0 0.00197267532348633 16548k 0.0512809753417969 2190.55427455902 0.0000 
4194304 513.721685647964 151.099605798721 0.000135898590087891 3780184.0719 513.721685647964 503.221483469009 10.5002021789551 10.5001411437988 0 0 0.0204 0.0204 0.0000 0.0000 155.099624872208 148.601427555084 6.49819731712341 6.49813628196716 3.3577561378479 0 0.0419 0.0419 0.0216 0.0000 20.3561556339264 15.9965190887451 4.35963654518127 4.34401154518127 2.36919260025024 0 0.2142 0.2134 0.1164 0.0000 513.721685647964 513.721682548523 3.09944152832031e-06 0 0 0 0.0000 0.0000 0.0000 0.0000 155.099624872208 154.972354888916 0.127269983291626 0.127239465713501 0.0196061134338379 0 0.0008 0.0008 0.0001 0.0000 0x00400000 0.020416259765625 0x10000000 0.00196552276611328 0x7fffc000 0.00390625 0x00400140 0x7fff8000 0 0.00196576118469238 32980k 0.0266199111938477 2365.21206998825 0.0000 
