#set_size_in_keys sim_num_insn sim_num_refs sim_elapsed_time sim_inst_rate il1.accesses il1.hits il1.misses il1.replacements il1.writebacks il1.invalidations il1.miss_rate il1.repl_rate il1.wb_rate il1.inv_rate dl1.accesses dl1.hits dl1.misses dl1.replacements dl1.writebacks dl1.invalidations dl1.miss_rate dl1.repl_rate dl1.wb_rate dl1.inv_rate dl2.accesses dl2.hits dl2.misses dl2.replacements dl2.writebacks dl2.invalidations dl2.miss_rate dl2.repl_rate dl2.wb_rate dl2.inv_rate itlb.accesses itlb.hits itlb.misses itlb.replacements itlb.writebacks itlb.invalidations itlb.miss_rate itlb.repl_rate itlb.wb_rate itlb.inv_rate dtlb.accesses dtlb.hits dtlb.misses dtlb.replacements dtlb.writebacks dtlb.invalidations dtlb.miss_rate dtlb.repl_rate dtlb.wb_rate dtlb.inv_rate ld_text_base ld_text_size ld_data_base ld_data_size ld_stack_base ld_stack_size ld_prog_entry ld_environ_base ld_target_big_endian mem.page_count mem.page_mem mem.ptab_misses mem.ptab_accesses mem.ptab_miss_rate
4096 189.5185546875 55.93798828125 0.001220703125 155253.6000 189.5185546875 189.405029296875 0.113525390625 0.051025390625 0 0 0.0006 0.0003 0.0000 0.0000 59.95751953125 57.092529296875 2.864990234375 2.802490234375 1.575927734375 0 0.0478 0.0467 0.0263 0.0000 4.554443359375 4.0986328125 0.455810546875 0 0 0 0.1001 0.0000 0.0000 0.0000 189.5185546875 189.515625 0.0029296875 0 0 0 0.0000 0.0000 0.0000 0.0000 59.95751953125 59.95361328125 0.00390625 0 0 0 0.0001 0.0000 0.0000 0.0000 0x00400000 20.890625 0x10000000 2.0126953125 0x7fffc000 4 0x00400140 0x7fff8000 0 0.009033203125 148k 0.009033203125 1006.9990234375 0.0000 
8192 207.87744140625 62.3851318359375 0.0009765625 212866.5000 207.87744140625 207.817016601562 0.0604248046875 0.0291748046875 0 0 0.0003 0.0001 0.0000 0.0000 66.3948974609375 63.0859375 3.3089599609375 3.2777099609375 1.788818359375 0 0.0498 0.0494 0.0269 0.0000 5.158203125 4.8026123046875 0.3555908203125 0 0 0 0.0689 0.0000 0.0000 0.0000 207.87744140625 207.8759765625 0.00146484375 0 0 0 0.0000 0.0000 0.0000 0.0000 66.3948974609375 66.3919677734375 0.0029296875 0 0 0 0.0000 0.0000 0.0000 0.0000 0x00400000 10.44921875 0x10000000 1.00634765625 0x7fffc000 2 0x00400140 0x7fff8000 0 0.0054931640625 180k 0.0054931640625 1028.82788085938 0.0000 
16384 221.975646972656 65.159912109375 0.000732421875 303070.7500 221.975646972656 221.947387695312 0.02825927734375 0.01263427734375 0 0 0.0001 0.0001 0.0000 0.0000 69.164794921875 65.8845825195312 3.28021240234375 3.26458740234375 1.76995849609375 0 0.0474 0.0472 0.0256 0.0000 5.07843017578125 4.77716064453125 0.30126953125 0 0 0 0.0593 0.0000 0.0000 0.0000 221.975646972656 221.974914550781 0.000732421875 0 0 0 0.0000 0.0000 0.0000 0.0000 69.164794921875 69.162353515625 0.00244140625 0 0 0 0.0000 0.0000 0.0000 0.0000 0x00400000 5.2255859375 0x10000000 0.503173828125 0x7fffc000 1 0x00400140 0x7fff8000 0 0.00372314453125 244k 0.00372314453125 1058.50219726562 0.0000 
32768 241.149475097656 72.008544921875 0.000701904296875 343564.6087 241.149475097656 241.134307861328 0.015167236328125 0.007354736328125 0 0 0.0001 0.0000 0.0000 0.0000 76.010986328125 72.2447814941406 3.76620483398438 3.75839233398438 2.01065063476562 0 0.0495 0.0494 0.0265 0.0000 5.79202270507812 5.51556396484375 0.276458740234375 0 0 0 0.0477 0.0000 0.0000 0.0000 241.149475097656 241.149108886719 0.0003662109375 0 0 0 0.0000 0.0000 0.0000 0.0000 76.010986328125 76.0087890625 0.002197265625 0 0 0 0.0000 0.0000 0.0000 0.0000 0x00400000 2.61328125 0x10000000 0.2515869140625 0x7fffc000 0.5 0x00400140 0x7fff8000 0 0.002838134765625 372k 0.002838134765625 1132.7578125 0.0000 
65536 255.694488525391 74.9871368408203 0.0006256103515625 408712.0488 255.694488525391 255.687347412109 0.00714111328125 0.00323486328125 0 0 0.0000 0.0000 0.0000 0.0000 78.9883575439453 75.2293395996094 3.75901794433594 3.75511169433594 2.00593566894531 0 0.0476 0.0475 0.0254 0.0000 5.7720947265625 5.50918579101562 0.262908935546875 0 0 0 0.0455 0.0000 0.0000 0.0000 255.694488525391 255.694305419922 0.00018310546875 0 0 0 0.0000 0.0000 0.0000 0.0000 78.9883575439453 78.9845123291016 0.00384521484375 0.00189208984375 0.001068115234375 0 0.0000 0.0000 0.0000 0.0000 0x00400000 1.306640625 0x10000000 0.12579345703125 0x7fffc000 0.25 0x00400140 0x7fff8000 0 0.0023956298828125 628k 0.0023956298828125 1188.82363891602 0.0000 
131072 275.044746398926 81.9288177490234 0.00054931640625 500703.6806 275.044746398926 275.040954589844 0.00379180908203125 0.00183868408203125 0 0 0.0000 0.0000 0.0000 0.0000 85.9294281005859 81.6739120483398 4.25551605224609 4.25356292724609 2.25358581542969 0 0.0495 0.0495 0.0262 0.0000 6.51289367675781 6.25628662109375 0.256607055664062 0 0 0 0.0394 0.0000 0.0000 0.0000 275.044746398926 275.044654846191 9.1552734375e-05 0 0 0 0.0000 0.0000 0.0000 0.0000 85.9294281005859 85.897087097168 0.0323410034179688 0.0313644409179688 0.0164337158203125 0 0.0004 0.0004 0.0002 0.0000 0x00400000 0.6533203125 0x10000000 0.062896728515625 0x7fffc000 0.125 0x00400140 0x7fff8000 0 0.00217437744140625 1140k 0.00217437744140625 1276.07232666016 0.0000 
262144 289.559871673584 84.9228935241699 0.000385284423828125 751548.3465 289.559871673584 289.558090209961 0.00178146362304688 0.000804901123046875 0 0 0.0000 0.0000 0.0000 0.0000 88.9231986999512 84.6694793701172 4.25371932983398 4.25274276733398 2.25242233276367 0 0.0478 0.0478 0.0253 0.0000 6.5079231262207 5.88640213012695 0.62152099609375 0.37152099609375 0.370532989501953 0 0.0955 0.0571 0.0569 0.0000 289.559871673584 289.559825897217 4.57763671875e-05 0 0 0 0.0000 0.0000 0.0000 0.0000 88.9231986999512 88.8898468017578 0.0333518981933594 0.0328636169433594 0.0174179077148438 0 0.0004 0.0004 0.0002 0.0000 0x00400000 0.32666015625 0x10000000 0.0314483642578125 0x7fffc000 0.0625 0x00400140 0x7fff8000 0 0.00206375122070312 2164k 0.00206375122070312 1338.10312652588 0.0000 
524288 409.396152496338 119.510377883911 0.000268936157226562 1522280.0709 409.396152496338 409.394685745239 0.00146675109863281 0.000978469848632812 0 0 0.0000 0.0000 0.0000 0.0000 123.510530471802 118.754308700562 4.75622177124023 4.75573348999023 2.50393295288086 0 0.0385 0.0385 0.0203 0.0000 7.26162147521973 6.04563522338867 1.21598625183105 1.09098625183105 0.886049270629883 0 0.1675 0.1502 0.1220 0.0000 409.396152496338 409.396127700806 2.47955322265625e-05 0 0 0 0.0000 0.0000 0.0000 0.0000 123.510530471802 123.473266601562 0.0372638702392578 0.0370197296142578 0.0195217132568359 0 0.0003 0.0003 0.0002 0.0000 0x00400000 0.163330078125 0x10000000 0.0157241821289062 0x7fffc000 0.03125 0x00400140 0x7fff8000 0 0.00201988220214844 4236k 0.00202560424804688 1885.61429214478 0.0000 
1048576 446.144903182983 129.928642272949 0.000201225280761719 2217141.4123 446.144903182983 446.144142150879 0.000761032104492188 0.000516891479492188 0 0 0.0000 0.0000 0.0000 0.0000 133.928718566895 129.174643516541 4.754075050354 4.753830909729 2.50259304046631 0 0.0355 0.0355 0.0187 0.0000 7.2574291229248 6.05218601226807 1.20524311065674 1.14274311065674 0.907541275024414 0 0.1661 0.1575 0.1250 0.0000 446.144903182983 446.144890785217 1.23977661132812e-05 0 0 0 0.0000 0.0000 0.0000 0.0000 133.928718566895 133.891441345215 0.0372772216796875 0.0371551513671875 0.0195674896240234 0 0.0003 0.0003 0.0001 0.0000 0x00400000 0.0816650390625 0x10000000 0.00786209106445312 0x7fffc000 0.015625 0x00400140 0x7fff8000 0 0.00198650360107422 8332k 0.100598335266113 2052.94136047363 0.0000 
2097152 476.097208976746 138.956603527069 0.000173568725585938 2742989.5989 476.097208976746 476.096828460693 0.000380516052246094 0.000258445739746094 0 0 0.0000 0.0000 0.0000 0.0000 142.956641674042 138.203197479248 4.7534441947937 4.7533221244812 2.50238847732544 0 0.0333 0.0333 0.0175 0.0000 7.25621318817139 6.05612421035767 1.20008897781372 1.16883897781372 0.918566703796387 0 0.1654 0.1611 0.1266 0.0000 476.097208976746 476.097202777863 6.19888305664062e-06 0 0 0 0.0000 0.0000 0.0000 0.0000 142.956641674042 142.910668849945 0.0459728240966797 0.0459117889404297 0.0195932388305664 0 0.0003 0.0003 0.0001 0.0000 0x00400000 0.04083251953125 0x10000000 0.00393104553222656 0x7fffc000 0.0078125 0x00400140 0x7fff8000 0 0.00197267532348633 16548k 0.0512809753417969 2190.55427455902 0.0000 
4194304 513.721685647964 151.099605798721 0.000165224075317383 3109242.3102 513.721685647964 513.721495389938 0.000190258026123047 0.000129222869873047 0 0 0.0000 0.0000 0.0000 0.0000 155.099624872208 150.346190929413 4.7534339427948 4.75337290763855 2.50257468223572 0 0.0306 0.0306 0.0161 0.0000 7.25619888305664 6.05857491493225 1.19762396812439 1.18199896812439 0.924180507659912 0 0.1650 0.1629 0.1274 0.0000 513.721685647964 513.721682548523 3.09944152832031e-06 0 0 0 0.0000 0.0000 0.0000 0.0000 155.099624872208 154.972354888916 0.127269983291626 0.127239465713501 0.0196061134338379 0 0.0008 0.0008 0.0001 0.0000 0x00400000 0.020416259765625 0x10000000 0.00196552276611328 0x7fffc000 0.00390625 0x00400140 0x7fff8000 0 0.00196576118469238 32980k 0.0266199111938477 2365.21206998825 0.0000 
