Wed Mar 24 14:32:13 2004
Run as: "./simple -c  base_radixsort"
-------------------------------------------------------------------------------------------------
sim-cache                                     4096 |         4096 |         4096 |         4096 |         8192 |         8192 |         8192 |         8192 |        16384 |        16384 |        16384 |        16384 |        32768 |        32768 |        32768 |        32768 |        65536 |        65536 |        65536 |        65536 |       131072 |       131072 |       131072 |       131072 |       262144 |       262144 |       262144 |       262144 |       524288 |       524288 |       524288 |       524288 |      1048576 |      1048576 |      1048576 |      1048576 |      2097152 |      2097152 |      2097152 |      2097152 |      4194304 |      4194304 |      4194304 |      4194304 |
-cache:dl1 dl1:256:32:1:l -cache:dl2 dl2:131072:32:1:l -cache:il1 il1:256:32:1:l -cache:il2 dl2
-cache:dl1 dl1:256:32:1:l -cache:dl2 dl2:65536:32:1:l -cache:il1 il1:256:32:1:l -cache:il2 dl2
-cache:dl1 dl1:1:32:256:l -cache:dl2 dl2:1:32:131072:l -cache:il1 il1:1:32:256:l -cache:il2 dl2
-cache:dl1 dl1:1:32:256:l -cache:dl2 dl2:1:32:65536:l -cache:il1 il1:1:32:256:l -cache:il2 dl2
-------------------------------------------------------------------------------------------------
sim_num_insn                                570228 |       570228 |       570228 |       570228 |      1117582 |      1117582 |      1117582 |      1117582 |      2212008 |      2212008 |      2212008 |      2212008 |      4400862 |      4400862 |      4400862 |      4400862 |      8778561 |      8778561 |      8778561 |      8778561 |     17533960 |     17533960 |     17533960 |     17533960 |     35044756 |     35044756 |     35044756 |     35044756 |     70066348 |     70066348 |     70066348 |     70066348 |    140122011 |    140122011 |    140122011 |    140122011 |    280217606 |    280217606 |    280217606 |    280217606 |    560408788 |    560408788 |    560408788 |    560408788 |
sim_num_refs                                237782 |       237782 |       237782 |       237782 |       463634 |       463634 |       463634 |       463634 |       915250 |       915250 |       915250 |       915250 |      1818488 |      1818488 |      1818488 |      1818488 |      3624956 |      3624956 |      3624956 |      3624956 |      7237892 |      7237892 |      7237892 |      7237892 |     14463764 |     14463764 |     14463764 |     14463764 |     28915508 |     28915508 |     28915508 |     28915508 |     57828262 |     57828262 |     57828262 |     57828262 |    115641386 |    115641386 |    115641386 |    115641386 |    231267634 |    231267634 |    231267634 |    231267634 |
sim_elapsed_time                                 1 |            1 |           22 |           11 |            1 |            1 |           36 |           18 |            2 |            1 |           61 |           29 |            3 |            3 |          116 |           55 |            5 |            5 |          175 |           83 |           11 |           10 |          317 |          144 |           22 |           21 |          543 |          198 |           45 |           45 |          748 |          231 |           89 |           95 |          792 |          275 |          178 |          179 |          906 |          380 |          360 |          387 |         1107 |          586 |
sim_inst_rate                          570228.0000 |  570228.0000 |   25919.4545 |   51838.9091 | 1117582.0000 | 1117582.0000 |   31043.9444 |   62087.8889 | 1106004.0000 | 2212008.0000 |   36262.4262 |   76276.1379 | 1466954.0000 | 1466954.0000 |   37938.4655 |   80015.6727 | 1755712.2000 | 1755712.2000 |   50163.2057 |  105765.7952 | 1593996.3636 | 1753396.0000 |   55312.1767 |  121763.6111 | 1592943.4545 | 1668797.9048 |   64539.1455 |  176993.7172 | 1557029.9556 | 1557029.9556 |   93671.5882 |  303317.5238 | 1574404.6180 | 1474968.5368 |  176921.7311 |  509534.5855 | 1574256.2135 | 1565461.4860 |  309290.9558 |  737414.7526 | 1556691.0778 | 1448084.7235 |  506241.0009 |  956328.9898 |
il1.accesses                                570228 |       570228 |       570228 |       570228 |      1117582 |      1117582 |      1117582 |      1117582 |      2212008 |      2212008 |      2212008 |      2212008 |      4400862 |      4400862 |      4400862 |      4400862 |      8778561 |      8778561 |      8778561 |      8778561 |     17533960 |     17533960 |     17533960 |     17533960 |     35044756 |     35044756 |     35044756 |     35044756 |     70066348 |     70066348 |     70066348 |     70066348 |    140122011 |    140122011 |    140122011 |    140122011 |    280217606 |    280217606 |    280217606 |    280217606 |    560408788 |    560408788 |    560408788 |    560408788 |
il1.hits                                    569789 |       569789 |       569852 |       569852 |      1117124 |      1117124 |      1117215 |      1117215 |      2211535 |      2211535 |      2211633 |      2211633 |      4400388 |      4400388 |      4400486 |      4400486 |      8778087 |      8778087 |      8778185 |      8778185 |     17533486 |     17533486 |     17533584 |     17533584 |     35044282 |     35044282 |     35044380 |     35044380 |     70065874 |     70065874 |     70065972 |     70065972 |    140121490 |    140121490 |    140121565 |    140121565 |    280217085 |    280217085 |    280217160 |    280217160 |    560408267 |    560408267 |    560408342 |    560408342 |
il1.misses                                     439 |          439 |          376 |          376 |          458 |          458 |          367 |          367 |          473 |          473 |          375 |          375 |          474 |          474 |          376 |          376 |          474 |          474 |          376 |          376 |          474 |          474 |          376 |          376 |          474 |          474 |          376 |          376 |          474 |          474 |          376 |          376 |          521 |          521 |          446 |          446 |          521 |          521 |          446 |          446 |          521 |          521 |          446 |          446 |
il1.replacements                               220 |          220 |          120 |          120 |          258 |          258 |          111 |          111 |          270 |          270 |          119 |          119 |          269 |          269 |          120 |          120 |          269 |          269 |          120 |          120 |          269 |          269 |          120 |          120 |          269 |          269 |          120 |          120 |          269 |          269 |          120 |          120 |          273 |          273 |          190 |          190 |          273 |          273 |          190 |          190 |          273 |          273 |          190 |          190 |
il1.writebacks                                   0 |            0 |            0 |            0 |            0 |            0 |            0 |            0 |            0 |            0 |            0 |            0 |            0 |            0 |            0 |            0 |            0 |            0 |            0 |            0 |            0 |            0 |            0 |            0 |            0 |            0 |            0 |            0 |            0 |            0 |            0 |            0 |            0 |            0 |            0 |            0 |            0 |            0 |            0 |            0 |            0 |            0 |            0 |            0 |
il1.invalidations                                0 |            0 |            0 |            0 |            0 |            0 |            0 |            0 |            0 |            0 |            0 |            0 |            0 |            0 |            0 |            0 |            0 |            0 |            0 |            0 |            0 |            0 |            0 |            0 |            0 |            0 |            0 |            0 |            0 |            0 |            0 |            0 |            0 |            0 |            0 |            0 |            0 |            0 |            0 |            0 |            0 |            0 |            0 |            0 |
il1.miss_rate                               0.0008 |       0.0008 |       0.0007 |       0.0007 |       0.0004 |       0.0004 |       0.0003 |       0.0003 |       0.0002 |       0.0002 |       0.0002 |       0.0002 |       0.0001 |       0.0001 |       0.0001 |       0.0001 |       0.0001 |       0.0001 |       0.0000 |       0.0000 |       0.0000 |       0.0000 |       0.0000 |       0.0000 |       0.0000 |       0.0000 |       0.0000 |       0.0000 |       0.0000 |       0.0000 |       0.0000 |       0.0000 |       0.0000 |       0.0000 |       0.0000 |       0.0000 |       0.0000 |       0.0000 |       0.0000 |       0.0000 |       0.0000 |       0.0000 |       0.0000 |       0.0000 |
il1.repl_rate                               0.0004 |       0.0004 |       0.0002 |       0.0002 |       0.0002 |       0.0002 |       0.0001 |       0.0001 |       0.0001 |       0.0001 |       0.0001 |       0.0001 |       0.0001 |       0.0001 |       0.0000 |       0.0000 |       0.0000 |       0.0000 |       0.0000 |       0.0000 |       0.0000 |       0.0000 |       0.0000 |       0.0000 |       0.0000 |       0.0000 |       0.0000 |       0.0000 |       0.0000 |       0.0000 |       0.0000 |       0.0000 |       0.0000 |       0.0000 |       0.0000 |       0.0000 |       0.0000 |       0.0000 |       0.0000 |       0.0000 |       0.0000 |       0.0000 |       0.0000 |       0.0000 |
il1.wb_rate                                 0.0000 |       0.0000 |       0.0000 |       0.0000 |       0.0000 |       0.0000 |       0.0000 |       0.0000 |       0.0000 |       0.0000 |       0.0000 |       0.0000 |       0.0000 |       0.0000 |       0.0000 |       0.0000 |       0.0000 |       0.0000 |       0.0000 |       0.0000 |       0.0000 |       0.0000 |       0.0000 |       0.0000 |       0.0000 |       0.0000 |       0.0000 |       0.0000 |       0.0000 |       0.0000 |       0.0000 |       0.0000 |       0.0000 |       0.0000 |       0.0000 |       0.0000 |       0.0000 |       0.0000 |       0.0000 |       0.0000 |       0.0000 |       0.0000 |       0.0000 |       0.0000 |
il1.inv_rate                                0.0000 |       0.0000 |       0.0000 |       0.0000 |       0.0000 |       0.0000 |       0.0000 |       0.0000 |       0.0000 |       0.0000 |       0.0000 |       0.0000 |       0.0000 |       0.0000 |       0.0000 |       0.0000 |       0.0000 |       0.0000 |       0.0000 |       0.0000 |       0.0000 |       0.0000 |       0.0000 |       0.0000 |       0.0000 |       0.0000 |       0.0000 |       0.0000 |       0.0000 |       0.0000 |       0.0000 |       0.0000 |       0.0000 |       0.0000 |       0.0000 |       0.0000 |       0.0000 |       0.0000 |       0.0000 |       0.0000 |       0.0000 |       0.0000 |       0.0000 |       0.0000 |
dl1.accesses                                237852 |       237852 |       237852 |       237852 |       463704 |       463704 |       463704 |       463704 |       915320 |       915320 |       915320 |       915320 |      1818558 |      1818558 |      1818558 |      1818558 |      3625026 |      3625026 |      3625026 |      3625026 |      7237962 |      7237962 |      7237962 |      7237962 |     14463834 |     14463834 |     14463834 |     14463834 |     28915578 |     28915578 |     28915578 |     28915578 |     57828332 |     57828332 |     57828332 |     57828332 |    115641456 |    115641456 |    115641456 |    115641456 |    231267704 |    231267704 |    231267704 |    231267704 |
dl1.hits                                    218949 |       218949 |       222832 |       222832 |       424858 |       424858 |       434236 |       434236 |       835725 |       835725 |       857190 |       857190 |      1657743 |      1657743 |      1703161 |      1703161 |      3296057 |      3296057 |      3395126 |      3395126 |      6559967 |      6559967 |      6778999 |      6778999 |     13025696 |     13025696 |     13546840 |     13546840 |     26033170 |     26033170 |     27082637 |     27082637 |     52251976 |     52251976 |     54163327 |     54163327 |    105067571 |    105067571 |    108311473 |    108311473 |    210952600 |    210952600 |    216611343 |    216611343 |
dl1.misses                                   18903 |        18903 |        15020 |        15020 |        38846 |        38846 |        29468 |        29468 |        79595 |        79595 |        58130 |        58130 |       160815 |       160815 |       115397 |       115397 |       328969 |       328969 |       229900 |       229900 |       677995 |       677995 |       458963 |       458963 |      1438138 |      1438138 |       916994 |       916994 |      2882408 |      2882408 |      1832941 |      1832941 |      5576356 |      5576356 |      3665005 |      3665005 |     10573885 |     10573885 |      7329983 |      7329983 |     20315104 |     20315104 |     14656361 |     14656361 |
dl1.replacements                             18647 |        18647 |        14764 |        14764 |        38590 |        38590 |        29212 |        29212 |        79339 |        79339 |        57874 |        57874 |       160559 |       160559 |       115141 |       115141 |       328713 |       328713 |       229644 |       229644 |       677739 |       677739 |       458707 |       458707 |      1437882 |      1437882 |       916738 |       916738 |      2882152 |      2882152 |      1832685 |      1832685 |      5576100 |      5576100 |      3664749 |      3664749 |     10573629 |     10573629 |      7329727 |      7329727 |     20314848 |     20314848 |     14656105 |     14656105 |
dl1.writebacks                               12654 |        12654 |         8813 |         8813 |        26103 |        26103 |        17065 |        17065 |        54087 |        54087 |        33408 |        33408 |       110035 |       110035 |        66092 |        66092 |       227532 |       227532 |       131433 |       131433 |       475220 |       475220 |       262190 |       262190 |      1032971 |      1032971 |       523612 |       523612 |      2072457 |      2072457 |      1046343 |      1046343 |      3956668 |      3956668 |      2091590 |      2091590 |      7333773 |      7333773 |      4183704 |      4183704 |     13835683 |     13835683 |      8364354 |      8364354 |
dl1.invalidations                                0 |            0 |            0 |            0 |            0 |            0 |            0 |            0 |            0 |            0 |            0 |            0 |            0 |            0 |            0 |            0 |            0 |            0 |            0 |            0 |            0 |            0 |            0 |            0 |            0 |            0 |            0 |            0 |            0 |            0 |            0 |            0 |            0 |            0 |            0 |            0 |            0 |            0 |            0 |            0 |            0 |            0 |            0 |            0 |
dl1.miss_rate                               0.0795 |       0.0795 |       0.0631 |       0.0631 |       0.0838 |       0.0838 |       0.0635 |       0.0635 |       0.0870 |       0.0870 |       0.0635 |       0.0635 |       0.0884 |       0.0884 |       0.0635 |       0.0635 |       0.0907 |       0.0907 |       0.0634 |       0.0634 |       0.0937 |       0.0937 |       0.0634 |       0.0634 |       0.0994 |       0.0994 |       0.0634 |       0.0634 |       0.0997 |       0.0997 |       0.0634 |       0.0634 |       0.0964 |       0.0964 |       0.0634 |       0.0634 |       0.0914 |       0.0914 |       0.0634 |       0.0634 |       0.0878 |       0.0878 |       0.0634 |       0.0634 |
dl1.repl_rate                               0.0784 |       0.0784 |       0.0621 |       0.0621 |       0.0832 |       0.0832 |       0.0630 |       0.0630 |       0.0867 |       0.0867 |       0.0632 |       0.0632 |       0.0883 |       0.0883 |       0.0633 |       0.0633 |       0.0907 |       0.0907 |       0.0633 |       0.0633 |       0.0936 |       0.0936 |       0.0634 |       0.0634 |       0.0994 |       0.0994 |       0.0634 |       0.0634 |       0.0997 |       0.0997 |       0.0634 |       0.0634 |       0.0964 |       0.0964 |       0.0634 |       0.0634 |       0.0914 |       0.0914 |       0.0634 |       0.0634 |       0.0878 |       0.0878 |       0.0634 |       0.0634 |
dl1.wb_rate                                 0.0532 |       0.0532 |       0.0371 |       0.0371 |       0.0563 |       0.0563 |       0.0368 |       0.0368 |       0.0591 |       0.0591 |       0.0365 |       0.0365 |       0.0605 |       0.0605 |       0.0363 |       0.0363 |       0.0628 |       0.0628 |       0.0363 |       0.0363 |       0.0657 |       0.0657 |       0.0362 |       0.0362 |       0.0714 |       0.0714 |       0.0362 |       0.0362 |       0.0717 |       0.0717 |       0.0362 |       0.0362 |       0.0684 |       0.0684 |       0.0362 |       0.0362 |       0.0634 |       0.0634 |       0.0362 |       0.0362 |       0.0598 |       0.0598 |       0.0362 |       0.0362 |
dl1.inv_rate                                0.0000 |       0.0000 |       0.0000 |       0.0000 |       0.0000 |       0.0000 |       0.0000 |       0.0000 |       0.0000 |       0.0000 |       0.0000 |       0.0000 |       0.0000 |       0.0000 |       0.0000 |       0.0000 |       0.0000 |       0.0000 |       0.0000 |       0.0000 |       0.0000 |       0.0000 |       0.0000 |       0.0000 |       0.0000 |       0.0000 |       0.0000 |       0.0000 |       0.0000 |       0.0000 |       0.0000 |       0.0000 |       0.0000 |       0.0000 |       0.0000 |       0.0000 |       0.0000 |       0.0000 |       0.0000 |       0.0000 |       0.0000 |       0.0000 |       0.0000 |       0.0000 |
dl2.accesses                                 31996 |        31996 |        24209 |        24209 |        65407 |        65407 |        46900 |        46900 |       134155 |       134155 |        91913 |        91913 |       271324 |       271324 |       181865 |       181865 |       556975 |       556975 |       361709 |       361709 |      1153689 |      1153689 |       721529 |       721529 |      2471583 |      2471583 |      1440982 |      1440982 |      4955339 |      4955339 |      2879660 |      2879660 |      9533545 |      9533545 |      5757041 |      5757041 |     17908179 |     17908179 |     11514133 |     11514133 |     34151308 |     34151308 |     23021161 |     23021161 |
dl2.hits                                     30102 |        30102 |        22363 |        22363 |        62479 |        62479 |        44039 |        44039 |       129165 |       129165 |        86996 |        86996 |       262237 |       262237 |       172851 |       172851 |       539696 |       539696 |       344503 |       344503 |      1120025 |      1120025 |       687939 |       687939 |      2405151 |      2381680 |      1374624 |      1370202 |      4799941 |      4087208 |      2742093 |      1537818 |      7811904 |      6800641 |      3073772 |      3018669 |     12427260 |     12350671 |      6039387 |      6013469 |     23077812 |     22953393 |     12022036 |     12009425 |
dl2.misses                                    1894 |         1894 |         1846 |         1846 |         2928 |         2928 |         2861 |         2861 |         4990 |         4990 |         4917 |         4917 |         9087 |         9087 |         9014 |         9014 |        17279 |        17279 |        17206 |        17206 |        33664 |        33664 |        33590 |        33590 |        66432 |        89903 |        66358 |        70780 |       155398 |       868131 |       137567 |      1341842 |      1721641 |      2732904 |      2683269 |      2738372 |      5480919 |      5557508 |      5474746 |      5500664 |     11073496 |     11197915 |     10999125 |     11011736 |
dl2.replacements                               414 |          414 |            0 |            0 |          429 |          429 |            0 |            0 |          443 |          443 |            0 |            0 |          444 |          444 |            0 |            0 |          444 |          444 |            0 |            0 |          445 |          445 |            0 |            0 |          445 |        25487 |            0 |         5244 |        25446 |       802595 |         6495 |      1276306 |      1590569 |      2667368 |      2552197 |      2672836 |      5349847 |      5491972 |      5343674 |      5435128 |     10942424 |     11132379 |     10868053 |     10946200 |
dl2.writebacks                                 232 |          232 |            0 |            0 |          247 |          247 |            0 |            0 |          254 |          254 |            0 |            0 |          255 |          255 |            0 |            0 |          255 |          255 |            0 |            0 |          255 |          255 |            0 |            0 |          255 |        15906 |            0 |         4874 |        15903 |       530024 |         6132 |       558470 |      1055037 |      1134973 |      1116280 |      1149132 |      2254168 |      2355622 |      2296787 |      2329716 |      4669838 |      4846251 |      4657712 |      4690784 |
dl2.invalidations                                0 |            0 |            0 |            0 |            0 |            0 |            0 |            0 |            0 |            0 |            0 |            0 |            0 |            0 |            0 |            0 |            0 |            0 |            0 |            0 |            0 |            0 |            0 |            0 |            0 |            0 |            0 |            0 |            0 |            0 |            0 |            0 |            0 |            0 |            0 |            0 |            0 |            0 |            0 |            0 |            0 |            0 |            0 |            0 |
dl2.miss_rate                               0.0592 |       0.0592 |       0.0763 |       0.0763 |       0.0448 |       0.0448 |       0.0610 |       0.0610 |       0.0372 |       0.0372 |       0.0535 |       0.0535 |       0.0335 |       0.0335 |       0.0496 |       0.0496 |       0.0310 |       0.0310 |       0.0476 |       0.0476 |       0.0292 |       0.0292 |       0.0466 |       0.0466 |       0.0269 |       0.0364 |       0.0461 |       0.0491 |       0.0314 |       0.1752 |       0.0478 |       0.4660 |       0.1806 |       0.2867 |       0.4661 |       0.4757 |       0.3061 |       0.3103 |       0.4755 |       0.4777 |       0.3242 |       0.3279 |       0.4778 |       0.4783 |
dl2.repl_rate                               0.0129 |       0.0129 |       0.0000 |       0.0000 |       0.0066 |       0.0066 |       0.0000 |       0.0000 |       0.0033 |       0.0033 |       0.0000 |       0.0000 |       0.0016 |       0.0016 |       0.0000 |       0.0000 |       0.0008 |       0.0008 |       0.0000 |       0.0000 |       0.0004 |       0.0004 |       0.0000 |       0.0000 |       0.0002 |       0.0103 |       0.0000 |       0.0036 |       0.0051 |       0.1620 |       0.0023 |       0.4432 |       0.1668 |       0.2798 |       0.4433 |       0.4643 |       0.2987 |       0.3067 |       0.4641 |       0.4720 |       0.3204 |       0.3260 |       0.4721 |       0.4755 |
dl2.wb_rate                                 0.0073 |       0.0073 |       0.0000 |       0.0000 |       0.0038 |       0.0038 |       0.0000 |       0.0000 |       0.0019 |       0.0019 |       0.0000 |       0.0000 |       0.0009 |       0.0009 |       0.0000 |       0.0000 |       0.0005 |       0.0005 |       0.0000 |       0.0000 |       0.0002 |       0.0002 |       0.0000 |       0.0000 |       0.0001 |       0.0064 |       0.0000 |       0.0034 |       0.0032 |       0.1070 |       0.0021 |       0.1939 |       0.1107 |       0.1191 |       0.1939 |       0.1996 |       0.1259 |       0.1315 |       0.1995 |       0.2023 |       0.1367 |       0.1419 |       0.2023 |       0.2038 |
dl2.inv_rate                                0.0000 |       0.0000 |       0.0000 |       0.0000 |       0.0000 |       0.0000 |       0.0000 |       0.0000 |       0.0000 |       0.0000 |       0.0000 |       0.0000 |       0.0000 |       0.0000 |       0.0000 |       0.0000 |       0.0000 |       0.0000 |       0.0000 |       0.0000 |       0.0000 |       0.0000 |       0.0000 |       0.0000 |       0.0000 |       0.0000 |       0.0000 |       0.0000 |       0.0000 |       0.0000 |       0.0000 |       0.0000 |       0.0000 |       0.0000 |       0.0000 |       0.0000 |       0.0000 |       0.0000 |       0.0000 |       0.0000 |       0.0000 |       0.0000 |       0.0000 |       0.0000 |
itlb.accesses                               570228 |       570228 |       570228 |       570228 |      1117582 |      1117582 |      1117582 |      1117582 |      2212008 |      2212008 |      2212008 |      2212008 |      4400862 |      4400862 |      4400862 |      4400862 |      8778561 |      8778561 |      8778561 |      8778561 |     17533960 |     17533960 |     17533960 |     17533960 |     35044756 |     35044756 |     35044756 |     35044756 |     70066348 |     70066348 |     70066348 |     70066348 |    140122011 |    140122011 |    140122011 |    140122011 |    280217606 |    280217606 |    280217606 |    280217606 |    560408788 |    560408788 |    560408788 |    560408788 |
itlb.hits                                   570219 |       570219 |       570219 |       570219 |      1117573 |      1117573 |      1117573 |      1117573 |      2211999 |      2211999 |      2211999 |      2211999 |      4400853 |      4400853 |      4400853 |      4400853 |      8778552 |      8778552 |      8778552 |      8778552 |     17533951 |     17533951 |     17533951 |     17533951 |     35044747 |     35044747 |     35044747 |     35044747 |     70066339 |     70066339 |     70066339 |     70066339 |    140122002 |    140122002 |    140122002 |    140122002 |    280217597 |    280217597 |    280217597 |    280217597 |    560408779 |    560408779 |    560408779 |    560408779 |
itlb.misses                                      9 |            9 |            9 |            9 |            9 |            9 |            9 |            9 |            9 |            9 |            9 |            9 |            9 |            9 |            9 |            9 |            9 |            9 |            9 |            9 |            9 |            9 |            9 |            9 |            9 |            9 |            9 |            9 |            9 |            9 |            9 |            9 |            9 |            9 |            9 |            9 |            9 |            9 |            9 |            9 |            9 |            9 |            9 |            9 |
itlb.replacements                                0 |            0 |            0 |            0 |            0 |            0 |            0 |            0 |            0 |            0 |            0 |            0 |            0 |            0 |            0 |            0 |            0 |            0 |            0 |            0 |            0 |            0 |            0 |            0 |            0 |            0 |            0 |            0 |            0 |            0 |            0 |            0 |            0 |            0 |            0 |            0 |            0 |            0 |            0 |            0 |            0 |            0 |            0 |            0 |
itlb.writebacks                                  0 |            0 |            0 |            0 |            0 |            0 |            0 |            0 |            0 |            0 |            0 |            0 |            0 |            0 |            0 |            0 |            0 |            0 |            0 |            0 |            0 |            0 |            0 |            0 |            0 |            0 |            0 |            0 |            0 |            0 |            0 |            0 |            0 |            0 |            0 |            0 |            0 |            0 |            0 |            0 |            0 |            0 |            0 |            0 |
itlb.invalidations                               0 |            0 |            0 |            0 |            0 |            0 |            0 |            0 |            0 |            0 |            0 |            0 |            0 |            0 |            0 |            0 |            0 |            0 |            0 |            0 |            0 |            0 |            0 |            0 |            0 |            0 |            0 |            0 |            0 |            0 |            0 |            0 |            0 |            0 |            0 |            0 |            0 |            0 |            0 |            0 |            0 |            0 |            0 |            0 |
itlb.miss_rate                              0.0000 |       0.0000 |       0.0000 |       0.0000 |       0.0000 |       0.0000 |       0.0000 |       0.0000 |       0.0000 |       0.0000 |       0.0000 |       0.0000 |       0.0000 |       0.0000 |       0.0000 |       0.0000 |       0.0000 |       0.0000 |       0.0000 |       0.0000 |       0.0000 |       0.0000 |       0.0000 |       0.0000 |       0.0000 |       0.0000 |       0.0000 |       0.0000 |       0.0000 |       0.0000 |       0.0000 |       0.0000 |       0.0000 |       0.0000 |       0.0000 |       0.0000 |       0.0000 |       0.0000 |       0.0000 |       0.0000 |       0.0000 |       0.0000 |       0.0000 |       0.0000 |
itlb.repl_rate                              0.0000 |       0.0000 |       0.0000 |       0.0000 |       0.0000 |       0.0000 |       0.0000 |       0.0000 |       0.0000 |       0.0000 |       0.0000 |       0.0000 |       0.0000 |       0.0000 |       0.0000 |       0.0000 |       0.0000 |       0.0000 |       0.0000 |       0.0000 |       0.0000 |       0.0000 |       0.0000 |       0.0000 |       0.0000 |       0.0000 |       0.0000 |       0.0000 |       0.0000 |       0.0000 |       0.0000 |       0.0000 |       0.0000 |       0.0000 |       0.0000 |       0.0000 |       0.0000 |       0.0000 |       0.0000 |       0.0000 |       0.0000 |       0.0000 |       0.0000 |       0.0000 |
itlb.wb_rate                                0.0000 |       0.0000 |       0.0000 |       0.0000 |       0.0000 |       0.0000 |       0.0000 |       0.0000 |       0.0000 |       0.0000 |       0.0000 |       0.0000 |       0.0000 |       0.0000 |       0.0000 |       0.0000 |       0.0000 |       0.0000 |       0.0000 |       0.0000 |       0.0000 |       0.0000 |       0.0000 |       0.0000 |       0.0000 |       0.0000 |       0.0000 |       0.0000 |       0.0000 |       0.0000 |       0.0000 |       0.0000 |       0.0000 |       0.0000 |       0.0000 |       0.0000 |       0.0000 |       0.0000 |       0.0000 |       0.0000 |       0.0000 |       0.0000 |       0.0000 |       0.0000 |
itlb.inv_rate                               0.0000 |       0.0000 |       0.0000 |       0.0000 |       0.0000 |       0.0000 |       0.0000 |       0.0000 |       0.0000 |       0.0000 |       0.0000 |       0.0000 |       0.0000 |       0.0000 |       0.0000 |       0.0000 |       0.0000 |       0.0000 |       0.0000 |       0.0000 |       0.0000 |       0.0000 |       0.0000 |       0.0000 |       0.0000 |       0.0000 |       0.0000 |       0.0000 |       0.0000 |       0.0000 |       0.0000 |       0.0000 |       0.0000 |       0.0000 |       0.0000 |       0.0000 |       0.0000 |       0.0000 |       0.0000 |       0.0000 |       0.0000 |       0.0000 |       0.0000 |       0.0000 |
dtlb.accesses                               237852 |       237852 |       237852 |       237852 |       463704 |       463704 |       463704 |       463704 |       915320 |       915320 |       915320 |       915320 |      1818558 |      1818558 |      1818558 |      1818558 |      3625026 |      3625026 |      3625026 |      3625026 |      7237962 |      7237962 |      7237962 |      7237962 |     14463834 |     14463834 |     14463834 |     14463834 |     28915578 |     28915578 |     28915578 |     28915578 |     57828332 |     57828332 |     57828332 |     57828332 |    115641456 |    115641456 |    115641456 |    115641456 |    231267704 |    231267704 |    231267704 |    231267704 |
dtlb.hits                                   237838 |       237838 |       237838 |       237838 |       463682 |       463682 |       463682 |       463682 |       915282 |       915282 |       915282 |       915282 |      1818488 |      1818488 |      1818488 |      1818488 |      3624833 |      3624833 |      3624833 |      3624833 |      7226620 |      7226620 |      7226620 |      7226620 |     13963411 |     13963411 |     13963411 |     13963411 |     27587322 |     27587322 |     27587322 |     27587322 |     54555362 |     54555362 |     54555362 |     54555362 |    108441684 |    108441684 |    108441684 |    108441684 |    216038758 |    216038758 |    216038758 |    216038758 |
dtlb.misses                                     14 |           14 |           14 |           14 |           22 |           22 |           22 |           22 |           38 |           38 |           38 |           38 |           70 |           70 |           70 |           70 |          193 |          193 |          193 |          193 |        11342 |        11342 |        11342 |        11342 |       500423 |       500423 |       500423 |       500423 |      1328256 |      1328256 |      1328256 |      1328256 |      3272970 |      3272970 |      3272970 |      3272970 |      7199772 |      7199772 |      7199772 |      7199772 |     15228946 |     15228946 |     15228946 |     15228946 |
dtlb.replacements                                0 |            0 |            0 |            0 |            0 |            0 |            0 |            0 |            0 |            0 |            0 |            0 |            0 |            0 |            0 |            0 |           65 |           65 |           65 |           65 |        11214 |        11214 |        11214 |        11214 |       500295 |       500295 |       500295 |       500295 |      1328128 |      1328128 |      1328128 |      1328128 |      3272842 |      3272842 |      3272842 |      3272842 |      7199644 |      7199644 |      7199644 |      7199644 |     15228818 |     15228818 |     15228818 |     15228818 |
dtlb.writebacks                                  0 |            0 |            0 |            0 |            0 |            0 |            0 |            0 |            0 |            0 |            0 |            0 |            0 |            0 |            0 |            0 |           40 |           40 |           40 |           40 |        10072 |        10072 |        10072 |        10072 |       497351 |       497351 |       497351 |       497351 |      1322095 |      1322095 |      1322095 |      1322095 |      3260619 |      3260619 |      3260619 |      3260619 |      7175121 |      7175121 |      7175121 |      7175121 |     15179719 |     15179719 |     15179719 |     15179719 |
dtlb.invalidations                               0 |            0 |            0 |            0 |            0 |            0 |            0 |            0 |            0 |            0 |            0 |            0 |            0 |            0 |            0 |            0 |            0 |            0 |            0 |            0 |            0 |            0 |            0 |            0 |            0 |            0 |            0 |            0 |            0 |            0 |            0 |            0 |            0 |            0 |            0 |            0 |            0 |            0 |            0 |            0 |            0 |            0 |            0 |            0 |
dtlb.miss_rate                              0.0001 |       0.0001 |       0.0001 |       0.0001 |       0.0000 |       0.0000 |       0.0000 |       0.0000 |       0.0000 |       0.0000 |       0.0000 |       0.0000 |       0.0000 |       0.0000 |       0.0000 |       0.0000 |       0.0001 |       0.0001 |       0.0001 |       0.0001 |       0.0016 |       0.0016 |       0.0016 |       0.0016 |       0.0346 |       0.0346 |       0.0346 |       0.0346 |       0.0459 |       0.0459 |       0.0459 |       0.0459 |       0.0566 |       0.0566 |       0.0566 |       0.0566 |       0.0623 |       0.0623 |       0.0623 |       0.0623 |       0.0658 |       0.0658 |       0.0658 |       0.0658 |
dtlb.repl_rate                              0.0000 |       0.0000 |       0.0000 |       0.0000 |       0.0000 |       0.0000 |       0.0000 |       0.0000 |       0.0000 |       0.0000 |       0.0000 |       0.0000 |       0.0000 |       0.0000 |       0.0000 |       0.0000 |       0.0000 |       0.0000 |       0.0000 |       0.0000 |       0.0015 |       0.0015 |       0.0015 |       0.0015 |       0.0346 |       0.0346 |       0.0346 |       0.0346 |       0.0459 |       0.0459 |       0.0459 |       0.0459 |       0.0566 |       0.0566 |       0.0566 |       0.0566 |       0.0623 |       0.0623 |       0.0623 |       0.0623 |       0.0658 |       0.0658 |       0.0658 |       0.0658 |
dtlb.wb_rate                                0.0000 |       0.0000 |       0.0000 |       0.0000 |       0.0000 |       0.0000 |       0.0000 |       0.0000 |       0.0000 |       0.0000 |       0.0000 |       0.0000 |       0.0000 |       0.0000 |       0.0000 |       0.0000 |       0.0000 |       0.0000 |       0.0000 |       0.0000 |       0.0014 |       0.0014 |       0.0014 |       0.0014 |       0.0344 |       0.0344 |       0.0344 |       0.0344 |       0.0457 |       0.0457 |       0.0457 |       0.0457 |       0.0564 |       0.0564 |       0.0564 |       0.0564 |       0.0620 |       0.0620 |       0.0620 |       0.0620 |       0.0656 |       0.0656 |       0.0656 |       0.0656 |
dtlb.inv_rate                               0.0000 |       0.0000 |       0.0000 |       0.0000 |       0.0000 |       0.0000 |       0.0000 |       0.0000 |       0.0000 |       0.0000 |       0.0000 |       0.0000 |       0.0000 |       0.0000 |       0.0000 |       0.0000 |       0.0000 |       0.0000 |       0.0000 |       0.0000 |       0.0000 |       0.0000 |       0.0000 |       0.0000 |       0.0000 |       0.0000 |       0.0000 |       0.0000 |       0.0000 |       0.0000 |       0.0000 |       0.0000 |       0.0000 |       0.0000 |       0.0000 |       0.0000 |       0.0000 |       0.0000 |       0.0000 |       0.0000 |       0.0000 |       0.0000 |       0.0000 |       0.0000 |
ld_text_base                            0x00400000 |   0x00400000 |   0x00400000 |   0x00400000 |   0x00400000 |   0x00400000 |   0x00400000 |   0x00400000 |   0x00400000 |   0x00400000 |   0x00400000 |   0x00400000 |   0x00400000 |   0x00400000 |   0x00400000 |   0x00400000 |   0x00400000 |   0x00400000 |   0x00400000 |   0x00400000 |   0x00400000 |   0x00400000 |   0x00400000 |   0x00400000 |   0x00400000 |   0x00400000 |   0x00400000 |   0x00400000 |   0x00400000 |   0x00400000 |   0x00400000 |   0x00400000 |   0x00400000 |   0x00400000 |   0x00400000 |   0x00400000 |   0x00400000 |   0x00400000 |   0x00400000 |   0x00400000 |   0x00400000 |   0x00400000 |   0x00400000 |   0x00400000 |
ld_text_size                                 33072 |        33072 |        33072 |        33072 |        33104 |        33104 |        33104 |        33104 |        33120 |        33120 |        33120 |        33120 |        33152 |        33152 |        33152 |        33152 |        33152 |        33152 |        33152 |        33152 |        33152 |        33152 |        33152 |        33152 |        33152 |        33152 |        33152 |        33152 |        33152 |        33152 |        33152 |        33152 |        33152 |        33152 |        33152 |        33152 |        33152 |        33152 |        33152 |        33152 |        33152 |        33152 |        33152 |        33152 |
ld_data_base                            0x10000000 |   0x10000000 |   0x10000000 |   0x10000000 |   0x10000000 |   0x10000000 |   0x10000000 |   0x10000000 |   0x10000000 |   0x10000000 |   0x10000000 |   0x10000000 |   0x10000000 |   0x10000000 |   0x10000000 |   0x10000000 |   0x10000000 |   0x10000000 |   0x10000000 |   0x10000000 |   0x10000000 |   0x10000000 |   0x10000000 |   0x10000000 |   0x10000000 |   0x10000000 |   0x10000000 |   0x10000000 |   0x10000000 |   0x10000000 |   0x10000000 |   0x10000000 |   0x10000000 |   0x10000000 |   0x10000000 |   0x10000000 |   0x10000000 |   0x10000000 |   0x10000000 |   0x10000000 |   0x10000000 |   0x10000000 |   0x10000000 |   0x10000000 |
ld_data_size                                  4096 |         4096 |         4096 |         4096 |         4096 |         4096 |         4096 |         4096 |         4096 |         4096 |         4096 |         4096 |         4096 |         4096 |         4096 |         4096 |         4096 |         4096 |         4096 |         4096 |         4096 |         4096 |         4096 |         4096 |         4096 |         4096 |         4096 |         4096 |         4096 |         4096 |         4096 |         4096 |         4096 |         4096 |         4096 |         4096 |         4096 |         4096 |         4096 |         4096 |         4096 |         4096 |         4096 |         4096 |
ld_stack_base                           0x7fffc000 |   0x7fffc000 |   0x7fffc000 |   0x7fffc000 |   0x7fffc000 |   0x7fffc000 |   0x7fffc000 |   0x7fffc000 |   0x7fffc000 |   0x7fffc000 |   0x7fffc000 |   0x7fffc000 |   0x7fffc000 |   0x7fffc000 |   0x7fffc000 |   0x7fffc000 |   0x7fffc000 |   0x7fffc000 |   0x7fffc000 |   0x7fffc000 |   0x7fffc000 |   0x7fffc000 |   0x7fffc000 |   0x7fffc000 |   0x7fffc000 |   0x7fffc000 |   0x7fffc000 |   0x7fffc000 |   0x7fffc000 |   0x7fffc000 |   0x7fffc000 |   0x7fffc000 |   0x7fffc000 |   0x7fffc000 |   0x7fffc000 |   0x7fffc000 |   0x7fffc000 |   0x7fffc000 |   0x7fffc000 |   0x7fffc000 |   0x7fffc000 |   0x7fffc000 |   0x7fffc000 |   0x7fffc000 |
ld_stack_size                                16384 |        16384 |        16384 |        16384 |        16384 |        16384 |        16384 |        16384 |        16384 |        16384 |        16384 |        16384 |        16384 |        16384 |        16384 |        16384 |        16384 |        16384 |        16384 |        16384 |        16384 |        16384 |        16384 |        16384 |        16384 |        16384 |        16384 |        16384 |        16384 |        16384 |        16384 |        16384 |        16384 |        16384 |        16384 |        16384 |        16384 |        16384 |        16384 |        16384 |        16384 |        16384 |        16384 |        16384 |
ld_prog_entry                           0x00400140 |   0x00400140 |   0x00400140 |   0x00400140 |   0x00400140 |   0x00400140 |   0x00400140 |   0x00400140 |   0x00400140 |   0x00400140 |   0x00400140 |   0x00400140 |   0x00400140 |   0x00400140 |   0x00400140 |   0x00400140 |   0x00400140 |   0x00400140 |   0x00400140 |   0x00400140 |   0x00400140 |   0x00400140 |   0x00400140 |   0x00400140 |   0x00400140 |   0x00400140 |   0x00400140 |   0x00400140 |   0x00400140 |   0x00400140 |   0x00400140 |   0x00400140 |   0x00400140 |   0x00400140 |   0x00400140 |   0x00400140 |   0x00400140 |   0x00400140 |   0x00400140 |   0x00400140 |   0x00400140 |   0x00400140 |   0x00400140 |   0x00400140 |
ld_environ_base                         0x7fff8000 |   0x7fff8000 |   0x7fff8000 |   0x7fff8000 |   0x7fff8000 |   0x7fff8000 |   0x7fff8000 |   0x7fff8000 |   0x7fff8000 |   0x7fff8000 |   0x7fff8000 |   0x7fff8000 |   0x7fff8000 |   0x7fff8000 |   0x7fff8000 |   0x7fff8000 |   0x7fff8000 |   0x7fff8000 |   0x7fff8000 |   0x7fff8000 |   0x7fff8000 |   0x7fff8000 |   0x7fff8000 |   0x7fff8000 |   0x7fff8000 |   0x7fff8000 |   0x7fff8000 |   0x7fff8000 |   0x7fff8000 |   0x7fff8000 |   0x7fff8000 |   0x7fff8000 |   0x7fff8000 |   0x7fff8000 |   0x7fff8000 |   0x7fff8000 |   0x7fff8000 |   0x7fff8000 |   0x7fff8000 |   0x7fff8000 |   0x7fff8000 |   0x7fff8000 |   0x7fff8000 |   0x7fff8000 |
ld_target_big_endian                             0 |            0 |            0 |            0 |            0 |            0 |            0 |            0 |            0 |            0 |            0 |            0 |            0 |            0 |            0 |            0 |            0 |            0 |            0 |            0 |            0 |            0 |            0 |            0 |            0 |            0 |            0 |            0 |            0 |            0 |            0 |            0 |            0 |            0 |            0 |            0 |            0 |            0 |            0 |            0 |            0 |            0 |            0 |            0 |
mem.page_count                                  23 |           23 |           23 |           23 |           31 |           31 |           31 |           31 |           47 |           47 |           47 |           47 |           79 |           79 |           79 |           79 |          143 |          143 |          143 |          143 |          271 |          271 |          271 |          271 |          527 |          527 |          527 |          527 |         1039 |         1039 |         1039 |         1039 |         2069 |         2069 |         2069 |         2069 |         4123 |         4123 |         4123 |         4123 |         8231 |         8231 |         8231 |         8231 |
mem.page_mem                                   92k |          92k |          92k |          92k |         124k |         124k |         124k |         124k |         188k |         188k |         188k |         188k |         316k |         316k |         316k |         316k |         572k |         572k |         572k |         572k |        1084k |        1084k |        1084k |        1084k |        2108k |        2108k |        2108k |        2108k |        4156k |        4156k |        4156k |        4156k |        8276k |        8276k |        8276k |        8276k |       16492k |       16492k |       16492k |       16492k |       32924k |       32924k |       32924k |       32924k |
mem.ptab_misses                                 23 |           23 |           23 |           23 |           31 |           31 |           31 |           31 |           47 |           47 |           47 |           47 |           79 |           79 |           79 |           79 |          143 |          143 |          143 |          143 |          271 |          271 |          271 |          271 |          527 |          527 |          527 |          527 |         1039 |         1039 |         1039 |         1039 |        20512 |        20512 |        20512 |        20512 |        20514 |        20514 |        20514 |        20514 |        24622 |        24622 |        24622 |        24622 |
mem.ptab_accesses                          2960262 |      2960262 |      2960262 |      2960262 |      5601574 |      5601574 |      5601574 |      5601574 |     10882606 |     10882606 |     10882606 |     10882606 |     21444690 |     21444690 |     21444690 |     21444690 |     42568422 |     42568422 |     42568422 |     42568422 |     84815890 |     84815890 |     84815890 |     84815890 |    169310818 |    169310818 |    169310818 |    169310818 |    338300674 |    338300674 |    338300674 |    338300674 |    676348834 |    676348834 |    676348834 |    676348834 |   1352357462 |   1352357462 |   1352357462 |   1352357462 |   2704374686 |   2704374686 |   2704374686 |   2704374686 |
mem.ptab_miss_rate                          0.0000 |       0.0000 |       0.0000 |       0.0000 |       0.0000 |       0.0000 |       0.0000 |       0.0000 |       0.0000 |       0.0000 |       0.0000 |       0.0000 |       0.0000 |       0.0000 |       0.0000 |       0.0000 |       0.0000 |       0.0000 |       0.0000 |       0.0000 |       0.0000 |       0.0000 |       0.0000 |       0.0000 |       0.0000 |       0.0000 |       0.0000 |       0.0000 |       0.0000 |       0.0000 |       0.0000 |       0.0000 |       0.0000 |       0.0000 |       0.0000 |       0.0000 |       0.0000 |       0.0000 |       0.0000 |       0.0000 |       0.0000 |       0.0000 |       0.0000 |       0.0000 |
-------------------------------------------------------------------------------------------------
sim-bpred                                     4096 |         4096 |         4096 |         4096 |         4096 |         4096 |         4096 |         8192 |         8192 |         8192 |         8192 |         8192 |         8192 |         8192 |        16384 |        16384 |        16384 |        16384 |        16384 |        16384 |        16384 |        32768 |        32768 |        32768 |        32768 |        32768 |        32768 |        32768 |        65536 |        65536 |        65536 |        65536 |        65536 |        65536 |        65536 |       131072 |       131072 |       131072 |       131072 |       131072 |       131072 |       131072 |       262144 |       262144 |       262144 |       262144 |       262144 |       262144 |       262144 |       524288 |       524288 |       524288 |       524288 |       524288 |       524288 |       524288 |      1048576 |      1048576 |      1048576 |      1048576 |      1048576 |      1048576 |      1048576 |      2097152 |      2097152 |      2097152 |      2097152 |      2097152 |      2097152 |      2097152 |      4194304 |      4194304 |      4194304 |      4194304 |      4194304 |      4194304 |      4194304 |
-bpred bimod -bpred:bimod 512
-bpred bimod -bpred:bimod 1024
-bpred bimod -bpred:bimod 2048
-bpred 2lev -bpred:2lev 1 512 10 1
-bpred 2lev -bpred:2lev 1 1024 10 1
-bpred 2lev -bpred:2lev 1 2048 10 1
-bpred 2lev -bpred:2lev 1 4096 10 1
-------------------------------------------------------------------------------------------------
sim_num_insn                                570228 |       570228 |       570228 |       570228 |       570228 |       570228 |       570228 |      1117582 |      1117582 |      1117582 |      1117582 |      1117582 |      1117582 |      1117582 |      2212008 |      2212008 |      2212008 |      2212008 |      2212008 |      2212008 |      2212008 |      4400862 |      4400862 |      4400862 |      4400862 |      4400862 |      4400862 |      4400862 |      8778561 |      8778561 |      8778561 |      8778561 |      8778561 |      8778561 |      8778561 |     17533960 |     17533960 |     17533960 |     17533960 |     17533960 |     17533960 |     17533960 |     35044756 |     35044756 |     35044756 |     35044756 |     35044756 |     35044756 |     35044756 |     70066348 |     70066348 |     70066348 |     70066348 |     70066348 |     70066348 |     70066348 |    140122011 |    140122011 |    140122011 |    140122011 |    140122011 |    140122011 |    140122011 |    280217606 |    280217606 |    280217606 |    280217606 |    280217606 |    280217606 |    280217606 |    560408788 |    560408788 |    560408788 |    560408788 |    560408788 |    560408788 |    560408788 |
sim_num_refs                                237782 |       237782 |       237782 |       237782 |       237782 |       237782 |       237782 |       463634 |       463634 |       463634 |       463634 |       463634 |       463634 |       463634 |       915250 |       915250 |       915250 |       915250 |       915250 |       915250 |       915250 |      1818488 |      1818488 |      1818488 |      1818488 |      1818488 |      1818488 |      1818488 |      3624956 |      3624956 |      3624956 |      3624956 |      3624956 |      3624956 |      3624956 |      7237892 |      7237892 |      7237892 |      7237892 |      7237892 |      7237892 |      7237892 |     14463764 |     14463764 |     14463764 |     14463764 |     14463764 |     14463764 |     14463764 |     28915508 |     28915508 |     28915508 |     28915508 |     28915508 |     28915508 |     28915508 |     57828262 |     57828262 |     57828262 |     57828262 |     57828262 |     57828262 |     57828262 |    115641386 |    115641386 |    115641386 |    115641386 |    115641386 |    115641386 |    115641386 |    231267634 |    231267634 |    231267634 |    231267634 |    231267634 |    231267634 |    231267634 |
sim_elapsed_time                                 1 |            1 |            1 |            1 |            1 |            1 |            1 |            1 |            1 |            1 |            1 |            1 |            1 |            1 |            1 |            1 |            1 |            1 |            1 |            1 |            1 |            1 |            1 |            1 |            1 |            1 |            1 |            1 |            2 |            2 |            2 |            1 |            2 |            2 |            2 |            4 |            4 |            3 |            4 |            4 |            4 |            3 |            7 |            8 |            7 |            8 |            7 |            8 |            7 |           15 |           15 |           15 |           15 |           15 |           21 |           15 |           30 |           30 |           30 |           30 |           33 |           30 |           31 |           60 |           60 |           60 |           61 |           61 |           60 |           61 |          119 |          119 |          119 |          120 |          121 |          120 |          120 |
sim_inst_rate                          570228.0000 |  570228.0000 |  570228.0000 |  570228.0000 |  570228.0000 |  570228.0000 |  570228.0000 | 1117582.0000 | 1117582.0000 | 1117582.0000 | 1117582.0000 | 1117582.0000 | 1117582.0000 | 1117582.0000 | 2212008.0000 | 2212008.0000 | 2212008.0000 | 2212008.0000 | 2212008.0000 | 2212008.0000 | 2212008.0000 | 4400862.0000 | 4400862.0000 | 4400862.0000 | 4400862.0000 | 4400862.0000 | 4400862.0000 | 4400862.0000 | 4389280.5000 | 4389280.5000 | 4389280.5000 | 8778561.0000 | 4389280.5000 | 4389280.5000 | 4389280.5000 | 4383490.0000 | 4383490.0000 | 5844653.3333 | 4383490.0000 | 4383490.0000 | 4383490.0000 | 5844653.3333 | 5006393.7143 | 4380594.5000 | 5006393.7143 | 4380594.5000 | 5006393.7143 | 4380594.5000 | 5006393.7143 | 4671089.8667 | 4671089.8667 | 4671089.8667 | 4671089.8667 | 4671089.8667 | 3336492.7619 | 4671089.8667 | 4670733.7000 | 4670733.7000 | 4670733.7000 | 4670733.7000 | 4246121.5455 | 4670733.7000 | 4520064.8710 | 4670293.4333 | 4670293.4333 | 4670293.4333 | 4593731.2459 | 4593731.2459 | 4670293.4333 | 4593731.2459 | 4709317.5462 | 4709317.5462 | 4709317.5462 | 4670073.2333 | 4631477.5868 | 4670073.2333 | 4670073.2333 |
sim_num_branches                             44408 |        44408 |        44408 |        44408 |        44408 |        44408 |        44408 |        85920 |        85920 |        85920 |        85920 |        85920 |        85920 |        85920 |       168864 |       168864 |       168864 |       168864 |       168864 |       168864 |       168864 |       334752 |       334752 |       334752 |       334752 |       334752 |       334752 |       334752 |       666528 |       666528 |       666528 |       666528 |       666528 |       666528 |       666528 |      1330080 |      1330080 |      1330080 |      1330080 |      1330080 |      1330080 |      1330080 |      2657184 |      2657184 |      2657184 |      2657184 |      2657184 |      2657184 |      2657184 |      5311392 |      5311392 |      5311392 |      5311392 |      5311392 |      5311392 |      5311392 |     10620601 |     10620601 |     10620601 |     10620601 |     10620601 |     10620601 |     10620601 |     21238204 |     21238204 |     21238204 |     21238204 |     21238204 |     21238204 |     21238204 |     42473407 |     42473407 |     42473407 |     42473407 |     42473407 |     42473407 |     42473407 |
sim_IPB                                    12.8407 |      12.8407 |      12.8407 |      12.8407 |      12.8407 |      12.8407 |      12.8407 |      13.0072 |      13.0072 |      13.0072 |      13.0072 |      13.0072 |      13.0072 |      13.0072 |      13.0993 |      13.0993 |      13.0993 |      13.0993 |      13.0993 |      13.0993 |      13.0993 |      13.1466 |      13.1466 |      13.1466 |      13.1466 |      13.1466 |      13.1466 |      13.1466 |      13.1706 |      13.1706 |      13.1706 |      13.1706 |      13.1706 |      13.1706 |      13.1706 |      13.1826 |      13.1826 |      13.1826 |      13.1826 |      13.1826 |      13.1826 |      13.1826 |      13.1887 |      13.1887 |      13.1887 |      13.1887 |      13.1887 |      13.1887 |      13.1887 |      13.1917 |      13.1917 |      13.1917 |      13.1917 |      13.1917 |      13.1917 |      13.1917 |      13.1934 |      13.1934 |      13.1934 |      13.1934 |      13.1934 |      13.1934 |      13.1934 |      13.1940 |      13.1940 |      13.1940 |      13.1940 |      13.1940 |      13.1940 |      13.1940 |      13.1943 |      13.1943 |      13.1943 |      13.1943 |      13.1943 |      13.1943 |      13.1943 |
bpred_bimod.lookups                          44408 |        44408 |        44408 |xxxxxxxxxxxxx |xxxxxxxxxxxxx |xxxxxxxxxxxxx |xxxxxxxxxxxxx |        85920 |        85920 |        85920 |xxxxxxxxxxxxx |xxxxxxxxxxxxx |xxxxxxxxxxxxx |xxxxxxxxxxxxx |       168864 |       168864 |       168864 |xxxxxxxxxxxxx |xxxxxxxxxxxxx |xxxxxxxxxxxxx |xxxxxxxxxxxxx |       334752 |       334752 |       334752 |xxxxxxxxxxxxx |xxxxxxxxxxxxx |xxxxxxxxxxxxx |xxxxxxxxxxxxx |       666528 |       666528 |       666528 |xxxxxxxxxxxxx |xxxxxxxxxxxxx |xxxxxxxxxxxxx |xxxxxxxxxxxxx |      1330080 |      1330080 |      1330080 |xxxxxxxxxxxxx |xxxxxxxxxxxxx |xxxxxxxxxxxxx |xxxxxxxxxxxxx |      2657184 |      2657184 |      2657184 |xxxxxxxxxxxxx |xxxxxxxxxxxxx |xxxxxxxxxxxxx |xxxxxxxxxxxxx |      5311392 |      5311392 |      5311392 |xxxxxxxxxxxxx |xxxxxxxxxxxxx |xxxxxxxxxxxxx |xxxxxxxxxxxxx |     10620601 |     10620601 |     10620601 |xxxxxxxxxxxxx |xxxxxxxxxxxxx |xxxxxxxxxxxxx |xxxxxxxxxxxxx |     21238204 |     21238204 |     21238204 |xxxxxxxxxxxxx |xxxxxxxxxxxxx |xxxxxxxxxxxxx |xxxxxxxxxxxxx |     42473407 |     42473407 |     42473407 |
bpred_bimod.updates                          44408 |        44408 |        44408 |xxxxxxxxxxxxx |xxxxxxxxxxxxx |xxxxxxxxxxxxx |xxxxxxxxxxxxx |        85920 |        85920 |        85920 |xxxxxxxxxxxxx |xxxxxxxxxxxxx |xxxxxxxxxxxxx |xxxxxxxxxxxxx |       168864 |       168864 |       168864 |xxxxxxxxxxxxx |xxxxxxxxxxxxx |xxxxxxxxxxxxx |xxxxxxxxxxxxx |       334752 |       334752 |       334752 |xxxxxxxxxxxxx |xxxxxxxxxxxxx |xxxxxxxxxxxxx |xxxxxxxxxxxxx |       666528 |       666528 |       666528 |xxxxxxxxxxxxx |xxxxxxxxxxxxx |xxxxxxxxxxxxx |xxxxxxxxxxxxx |      1330080 |      1330080 |      1330080 |xxxxxxxxxxxxx |xxxxxxxxxxxxx |xxxxxxxxxxxxx |xxxxxxxxxxxxx |      2657184 |      2657184 |      2657184 |xxxxxxxxxxxxx |xxxxxxxxxxxxx |xxxxxxxxxxxxx |xxxxxxxxxxxxx |      5311392 |      5311392 |      5311392 |xxxxxxxxxxxxx |xxxxxxxxxxxxx |xxxxxxxxxxxxx |xxxxxxxxxxxxx |     10620601 |     10620601 |     10620601 |xxxxxxxxxxxxx |xxxxxxxxxxxxx |xxxxxxxxxxxxx |xxxxxxxxxxxxx |     21238204 |     21238204 |     21238204 |xxxxxxxxxxxxx |xxxxxxxxxxxxx |xxxxxxxxxxxxx |xxxxxxxxxxxxx |     42473407 |     42473407 |     42473407 |
bpred_bimod.addr_hits                        43904 |        43907 |        43909 |xxxxxxxxxxxxx |xxxxxxxxxxxxx |xxxxxxxxxxxxx |xxxxxxxxxxxxx |        85147 |        85150 |        85151 |xxxxxxxxxxxxx |xxxxxxxxxxxxx |xxxxxxxxxxxxx |xxxxxxxxxxxxx |       167563 |       167565 |       167567 |xxxxxxxxxxxxx |xxxxxxxxxxxxx |xxxxxxxxxxxxx |xxxxxxxxxxxxx |       332393 |       332395 |       332397 |xxxxxxxxxxxxx |xxxxxxxxxxxxx |xxxxxxxxxxxxx |xxxxxxxxxxxxx |       662055 |       662057 |       662059 |xxxxxxxxxxxxx |xxxxxxxxxxxxx |xxxxxxxxxxxxx |xxxxxxxxxxxxx |      1321379 |      1321381 |      1321383 |xxxxxxxxxxxxx |xxxxxxxxxxxxx |xxxxxxxxxxxxx |xxxxxxxxxxxxx |      2640027 |      2640029 |      2640031 |xxxxxxxxxxxxx |xxxxxxxxxxxxx |xxxxxxxxxxxxx |xxxxxxxxxxxxx |      5277323 |      5277325 |      5277327 |xxxxxxxxxxxxx |xxxxxxxxxxxxx |xxxxxxxxxxxxx |xxxxxxxxxxxxx |     10552679 |     10552682 |     10552684 |xxxxxxxxxxxxx |xxxxxxxxxxxxx |xxxxxxxxxxxxx |xxxxxxxxxxxxx |     21102632 |     21102635 |     21102637 |xxxxxxxxxxxxx |xxxxxxxxxxxxx |xxxxxxxxxxxxx |xxxxxxxxxxxxx |     42202535 |     42202538 |     42202540 |
bpred_bimod.dir_hits                         44012 |        44015 |        44017 |xxxxxxxxxxxxx |xxxxxxxxxxxxx |xxxxxxxxxxxxx |xxxxxxxxxxxxx |        85257 |        85261 |        85262 |xxxxxxxxxxxxx |xxxxxxxxxxxxx |xxxxxxxxxxxxx |xxxxxxxxxxxxx |       167677 |       167678 |       167680 |xxxxxxxxxxxxx |xxxxxxxxxxxxx |xxxxxxxxxxxxx |xxxxxxxxxxxxx |       332507 |       332509 |       332510 |xxxxxxxxxxxxx |xxxxxxxxxxxxx |xxxxxxxxxxxxx |xxxxxxxxxxxxx |       662169 |       662171 |       662172 |xxxxxxxxxxxxx |xxxxxxxxxxxxx |xxxxxxxxxxxxx |xxxxxxxxxxxxx |      1321493 |      1321494 |      1321495 |xxxxxxxxxxxxx |xxxxxxxxxxxxx |xxxxxxxxxxxxx |xxxxxxxxxxxxx |      2640141 |      2640142 |      2640143 |xxxxxxxxxxxxx |xxxxxxxxxxxxx |xxxxxxxxxxxxx |xxxxxxxxxxxxx |      5277437 |      5277438 |      5277439 |xxxxxxxxxxxxx |xxxxxxxxxxxxx |xxxxxxxxxxxxx |xxxxxxxxxxxxx |     10552804 |     10552806 |     10552807 |xxxxxxxxxxxxx |xxxxxxxxxxxxx |xxxxxxxxxxxxx |xxxxxxxxxxxxx |     21102757 |     21102759 |     21102760 |xxxxxxxxxxxxx |xxxxxxxxxxxxx |xxxxxxxxxxxxx |xxxxxxxxxxxxx |     42202660 |     42202662 |     42202663 |
bpred_bimod.misses                             396 |          393 |          391 |xxxxxxxxxxxxx |xxxxxxxxxxxxx |xxxxxxxxxxxxx |xxxxxxxxxxxxx |          663 |          659 |          658 |xxxxxxxxxxxxx |xxxxxxxxxxxxx |xxxxxxxxxxxxx |xxxxxxxxxxxxx |         1187 |         1186 |         1184 |xxxxxxxxxxxxx |xxxxxxxxxxxxx |xxxxxxxxxxxxx |xxxxxxxxxxxxx |         2245 |         2243 |         2242 |xxxxxxxxxxxxx |xxxxxxxxxxxxx |xxxxxxxxxxxxx |xxxxxxxxxxxxx |         4359 |         4357 |         4356 |xxxxxxxxxxxxx |xxxxxxxxxxxxx |xxxxxxxxxxxxx |xxxxxxxxxxxxx |         8587 |         8586 |         8585 |xxxxxxxxxxxxx |xxxxxxxxxxxxx |xxxxxxxxxxxxx |xxxxxxxxxxxxx |        17043 |        17042 |        17041 |xxxxxxxxxxxxx |xxxxxxxxxxxxx |xxxxxxxxxxxxx |xxxxxxxxxxxxx |        33955 |        33954 |        33953 |xxxxxxxxxxxxx |xxxxxxxxxxxxx |xxxxxxxxxxxxx |xxxxxxxxxxxxx |        67797 |        67795 |        67794 |xxxxxxxxxxxxx |xxxxxxxxxxxxx |xxxxxxxxxxxxx |xxxxxxxxxxxxx |       135447 |       135445 |       135444 |xxxxxxxxxxxxx |xxxxxxxxxxxxx |xxxxxxxxxxxxx |xxxxxxxxxxxxx |       270747 |       270745 |       270744 |
bpred_bimod.jr_hits                           8558 |         8558 |         8558 |xxxxxxxxxxxxx |xxxxxxxxxxxxx |xxxxxxxxxxxxx |xxxxxxxxxxxxx |        16758 |        16758 |        16758 |xxxxxxxxxxxxx |xxxxxxxxxxxxx |xxxxxxxxxxxxx |xxxxxxxxxxxxx |        33142 |        33142 |        33142 |xxxxxxxxxxxxx |xxxxxxxxxxxxx |xxxxxxxxxxxxx |xxxxxxxxxxxxx |        65910 |        65910 |        65910 |xxxxxxxxxxxxx |xxxxxxxxxxxxx |xxxxxxxxxxxxx |xxxxxxxxxxxxx |       131446 |       131446 |       131446 |xxxxxxxxxxxxx |xxxxxxxxxxxxx |xxxxxxxxxxxxx |xxxxxxxxxxxxx |       262518 |       262518 |       262518 |xxxxxxxxxxxxx |xxxxxxxxxxxxx |xxxxxxxxxxxxx |xxxxxxxxxxxxx |       524662 |       524662 |       524662 |xxxxxxxxxxxxx |xxxxxxxxxxxxx |xxxxxxxxxxxxx |xxxxxxxxxxxxx |      1048950 |      1048950 |      1048950 |xxxxxxxxxxxxx |xxxxxxxxxxxxx |xxxxxxxxxxxxx |xxxxxxxxxxxxx |      2097529 |      2097529 |      2097529 |xxxxxxxxxxxxx |xxxxxxxxxxxxx |xxxxxxxxxxxxx |xxxxxxxxxxxxx |      4194681 |      4194681 |      4194681 |xxxxxxxxxxxxx |xxxxxxxxxxxxx |xxxxxxxxxxxxx |xxxxxxxxxxxxx |      8388985 |      8388985 |      8388985 |
bpred_bimod.jr_seen                           8558 |         8558 |         8558 |xxxxxxxxxxxxx |xxxxxxxxxxxxx |xxxxxxxxxxxxx |xxxxxxxxxxxxx |        16759 |        16759 |        16759 |xxxxxxxxxxxxx |xxxxxxxxxxxxx |xxxxxxxxxxxxx |xxxxxxxxxxxxx |        33143 |        33143 |        33143 |xxxxxxxxxxxxx |xxxxxxxxxxxxx |xxxxxxxxxxxxx |xxxxxxxxxxxxx |        65911 |        65911 |        65911 |xxxxxxxxxxxxx |xxxxxxxxxxxxx |xxxxxxxxxxxxx |xxxxxxxxxxxxx |       131447 |       131447 |       131447 |xxxxxxxxxxxxx |xxxxxxxxxxxxx |xxxxxxxxxxxxx |xxxxxxxxxxxxx |       262519 |       262519 |       262519 |xxxxxxxxxxxxx |xxxxxxxxxxxxx |xxxxxxxxxxxxx |xxxxxxxxxxxxx |       524663 |       524663 |       524663 |xxxxxxxxxxxxx |xxxxxxxxxxxxx |xxxxxxxxxxxxx |xxxxxxxxxxxxx |      1048951 |      1048951 |      1048951 |xxxxxxxxxxxxx |xxxxxxxxxxxxx |xxxxxxxxxxxxx |xxxxxxxxxxxxx |      2097530 |      2097530 |      2097530 |xxxxxxxxxxxxx |xxxxxxxxxxxxx |xxxxxxxxxxxxx |xxxxxxxxxxxxx |      4194682 |      4194682 |      4194682 |xxxxxxxxxxxxx |xxxxxxxxxxxxx |xxxxxxxxxxxxx |xxxxxxxxxxxxx |      8388986 |      8388986 |      8388986 |
bpred_bimod.jr_non_ras_hits.PP                   0 |            0 |            0 |xxxxxxxxxxxxx |xxxxxxxxxxxxx |xxxxxxxxxxxxx |xxxxxxxxxxxxx |            0 |            0 |            0 |xxxxxxxxxxxxx |xxxxxxxxxxxxx |xxxxxxxxxxxxx |xxxxxxxxxxxxx |            0 |            0 |            0 |xxxxxxxxxxxxx |xxxxxxxxxxxxx |xxxxxxxxxxxxx |xxxxxxxxxxxxx |            0 |            0 |            0 |xxxxxxxxxxxxx |xxxxxxxxxxxxx |xxxxxxxxxxxxx |xxxxxxxxxxxxx |            0 |            0 |            0 |xxxxxxxxxxxxx |xxxxxxxxxxxxx |xxxxxxxxxxxxx |xxxxxxxxxxxxx |            0 |            0 |            0 |xxxxxxxxxxxxx |xxxxxxxxxxxxx |xxxxxxxxxxxxx |xxxxxxxxxxxxx |            0 |            0 |            0 |xxxxxxxxxxxxx |xxxxxxxxxxxxx |xxxxxxxxxxxxx |xxxxxxxxxxxxx |            0 |            0 |            0 |xxxxxxxxxxxxx |xxxxxxxxxxxxx |xxxxxxxxxxxxx |xxxxxxxxxxxxx |            0 |            0 |            0 |xxxxxxxxxxxxx |xxxxxxxxxxxxx |xxxxxxxxxxxxx |xxxxxxxxxxxxx |            0 |            0 |            0 |xxxxxxxxxxxxx |xxxxxxxxxxxxx |xxxxxxxxxxxxx |xxxxxxxxxxxxx |            0 |            0 |            0 |
bpred_bimod.jr_non_ras_seen.PP                   0 |            0 |            0 |xxxxxxxxxxxxx |xxxxxxxxxxxxx |xxxxxxxxxxxxx |xxxxxxxxxxxxx |            0 |            0 |            0 |xxxxxxxxxxxxx |xxxxxxxxxxxxx |xxxxxxxxxxxxx |xxxxxxxxxxxxx |            0 |            0 |            0 |xxxxxxxxxxxxx |xxxxxxxxxxxxx |xxxxxxxxxxxxx |xxxxxxxxxxxxx |            0 |            0 |            0 |xxxxxxxxxxxxx |xxxxxxxxxxxxx |xxxxxxxxxxxxx |xxxxxxxxxxxxx |            0 |            0 |            0 |xxxxxxxxxxxxx |xxxxxxxxxxxxx |xxxxxxxxxxxxx |xxxxxxxxxxxxx |            0 |            0 |            0 |xxxxxxxxxxxxx |xxxxxxxxxxxxx |xxxxxxxxxxxxx |xxxxxxxxxxxxx |            0 |            0 |            0 |xxxxxxxxxxxxx |xxxxxxxxxxxxx |xxxxxxxxxxxxx |xxxxxxxxxxxxx |            0 |            0 |            0 |xxxxxxxxxxxxx |xxxxxxxxxxxxx |xxxxxxxxxxxxx |xxxxxxxxxxxxx |            1 |            1 |            1 |xxxxxxxxxxxxx |xxxxxxxxxxxxx |xxxxxxxxxxxxx |xxxxxxxxxxxxx |            1 |            1 |            1 |xxxxxxxxxxxxx |xxxxxxxxxxxxx |xxxxxxxxxxxxx |xxxxxxxxxxxxx |            1 |            1 |            1 |
bpred_bimod.bpred_addr_rate                 0.9887 |       0.9887 |       0.9888 |xxxxxxxxxxxxx |xxxxxxxxxxxxx |xxxxxxxxxxxxx |xxxxxxxxxxxxx |       0.9910 |       0.9910 |       0.9910 |xxxxxxxxxxxxx |xxxxxxxxxxxxx |xxxxxxxxxxxxx |xxxxxxxxxxxxx |       0.9923 |       0.9923 |       0.9923 |xxxxxxxxxxxxx |xxxxxxxxxxxxx |xxxxxxxxxxxxx |xxxxxxxxxxxxx |       0.9930 |       0.9930 |       0.9930 |xxxxxxxxxxxxx |xxxxxxxxxxxxx |xxxxxxxxxxxxx |xxxxxxxxxxxxx |       0.9933 |       0.9933 |       0.9933 |xxxxxxxxxxxxx |xxxxxxxxxxxxx |xxxxxxxxxxxxx |xxxxxxxxxxxxx |       0.9935 |       0.9935 |       0.9935 |xxxxxxxxxxxxx |xxxxxxxxxxxxx |xxxxxxxxxxxxx |xxxxxxxxxxxxx |       0.9935 |       0.9935 |       0.9935 |xxxxxxxxxxxxx |xxxxxxxxxxxxx |xxxxxxxxxxxxx |xxxxxxxxxxxxx |       0.9936 |       0.9936 |       0.9936 |xxxxxxxxxxxxx |xxxxxxxxxxxxx |xxxxxxxxxxxxx |xxxxxxxxxxxxx |       0.9936 |       0.9936 |       0.9936 |xxxxxxxxxxxxx |xxxxxxxxxxxxx |xxxxxxxxxxxxx |xxxxxxxxxxxxx |       0.9936 |       0.9936 |       0.9936 |xxxxxxxxxxxxx |xxxxxxxxxxxxx |xxxxxxxxxxxxx |xxxxxxxxxxxxx |       0.9936 |       0.9936 |       0.9936 |
bpred_bimod.bpred_dir_rate                  0.9911 |       0.9912 |       0.9912 |xxxxxxxxxxxxx |xxxxxxxxxxxxx |xxxxxxxxxxxxx |xxxxxxxxxxxxx |       0.9923 |       0.9923 |       0.9923 |xxxxxxxxxxxxx |xxxxxxxxxxxxx |xxxxxxxxxxxxx |xxxxxxxxxxxxx |       0.9930 |       0.9930 |       0.9930 |xxxxxxxxxxxxx |xxxxxxxxxxxxx |xxxxxxxxxxxxx |xxxxxxxxxxxxx |       0.9933 |       0.9933 |       0.9933 |xxxxxxxxxxxxx |xxxxxxxxxxxxx |xxxxxxxxxxxxx |xxxxxxxxxxxxx |       0.9935 |       0.9935 |       0.9935 |xxxxxxxxxxxxx |xxxxxxxxxxxxx |xxxxxxxxxxxxx |xxxxxxxxxxxxx |       0.9935 |       0.9935 |       0.9935 |xxxxxxxxxxxxx |xxxxxxxxxxxxx |xxxxxxxxxxxxx |xxxxxxxxxxxxx |       0.9936 |       0.9936 |       0.9936 |xxxxxxxxxxxxx |xxxxxxxxxxxxx |xxxxxxxxxxxxx |xxxxxxxxxxxxx |       0.9936 |       0.9936 |       0.9936 |xxxxxxxxxxxxx |xxxxxxxxxxxxx |xxxxxxxxxxxxx |xxxxxxxxxxxxx |       0.9936 |       0.9936 |       0.9936 |xxxxxxxxxxxxx |xxxxxxxxxxxxx |xxxxxxxxxxxxx |xxxxxxxxxxxxx |       0.9936 |       0.9936 |       0.9936 |xxxxxxxxxxxxx |xxxxxxxxxxxxx |xxxxxxxxxxxxx |xxxxxxxxxxxxx |       0.9936 |       0.9936 |       0.9936 |
bpred_bimod.bpred_jr_rate                   1.0000 |       1.0000 |       1.0000 |xxxxxxxxxxxxx |xxxxxxxxxxxxx |xxxxxxxxxxxxx |xxxxxxxxxxxxx |       0.9999 |       0.9999 |       0.9999 |xxxxxxxxxxxxx |xxxxxxxxxxxxx |xxxxxxxxxxxxx |xxxxxxxxxxxxx |       1.0000 |       1.0000 |       1.0000 |xxxxxxxxxxxxx |xxxxxxxxxxxxx |xxxxxxxxxxxxx |xxxxxxxxxxxxx |       1.0000 |       1.0000 |       1.0000 |xxxxxxxxxxxxx |xxxxxxxxxxxxx |xxxxxxxxxxxxx |xxxxxxxxxxxxx |       1.0000 |       1.0000 |       1.0000 |xxxxxxxxxxxxx |xxxxxxxxxxxxx |xxxxxxxxxxxxx |xxxxxxxxxxxxx |       1.0000 |       1.0000 |       1.0000 |xxxxxxxxxxxxx |xxxxxxxxxxxxx |xxxxxxxxxxxxx |xxxxxxxxxxxxx |       1.0000 |       1.0000 |       1.0000 |xxxxxxxxxxxxx |xxxxxxxxxxxxx |xxxxxxxxxxxxx |xxxxxxxxxxxxx |       1.0000 |       1.0000 |       1.0000 |xxxxxxxxxxxxx |xxxxxxxxxxxxx |xxxxxxxxxxxxx |xxxxxxxxxxxxx |       1.0000 |       1.0000 |       1.0000 |xxxxxxxxxxxxx |xxxxxxxxxxxxx |xxxxxxxxxxxxx |xxxxxxxxxxxxx |       1.0000 |       1.0000 |       1.0000 |xxxxxxxxxxxxx |xxxxxxxxxxxxx |xxxxxxxxxxxxx |xxxxxxxxxxxxx |       1.0000 |       1.0000 |       1.0000 |
bpred_bimod.bpred_jr_non_ras_rate.PP       <error: |      <error: |      <error: |xxxxxxxxxxxxx |xxxxxxxxxxxxx |xxxxxxxxxxxxx |xxxxxxxxxxxxx |      <error: |      <error: |      <error: |xxxxxxxxxxxxx |xxxxxxxxxxxxx |xxxxxxxxxxxxx |xxxxxxxxxxxxx |      <error: |      <error: |      <error: |xxxxxxxxxxxxx |xxxxxxxxxxxxx |xxxxxxxxxxxxx |xxxxxxxxxxxxx |      <error: |      <error: |      <error: |xxxxxxxxxxxxx |xxxxxxxxxxxxx |xxxxxxxxxxxxx |xxxxxxxxxxxxx |      <error: |      <error: |      <error: |xxxxxxxxxxxxx |xxxxxxxxxxxxx |xxxxxxxxxxxxx |xxxxxxxxxxxxx |      <error: |      <error: |      <error: |xxxxxxxxxxxxx |xxxxxxxxxxxxx |xxxxxxxxxxxxx |xxxxxxxxxxxxx |      <error: |      <error: |      <error: |xxxxxxxxxxxxx |xxxxxxxxxxxxx |xxxxxxxxxxxxx |xxxxxxxxxxxxx |      <error: |      <error: |      <error: |xxxxxxxxxxxxx |xxxxxxxxxxxxx |xxxxxxxxxxxxx |xxxxxxxxxxxxx |       0.0000 |       0.0000 |       0.0000 |xxxxxxxxxxxxx |xxxxxxxxxxxxx |xxxxxxxxxxxxx |xxxxxxxxxxxxx |       0.0000 |       0.0000 |       0.0000 |xxxxxxxxxxxxx |xxxxxxxxxxxxx |xxxxxxxxxxxxx |xxxxxxxxxxxxx |       0.0000 |       0.0000 |       0.0000 |
bpred_bimod.retstack_pushes                   8560 |         8560 |         8560 |xxxxxxxxxxxxx |xxxxxxxxxxxxx |xxxxxxxxxxxxx |xxxxxxxxxxxxx |        16761 |        16761 |        16761 |xxxxxxxxxxxxx |xxxxxxxxxxxxx |xxxxxxxxxxxxx |xxxxxxxxxxxxx |        33145 |        33145 |        33145 |xxxxxxxxxxxxx |xxxxxxxxxxxxx |xxxxxxxxxxxxx |xxxxxxxxxxxxx |        65913 |        65913 |        65913 |xxxxxxxxxxxxx |xxxxxxxxxxxxx |xxxxxxxxxxxxx |xxxxxxxxxxxxx |       131449 |       131449 |       131449 |xxxxxxxxxxxxx |xxxxxxxxxxxxx |xxxxxxxxxxxxx |xxxxxxxxxxxxx |       262521 |       262521 |       262521 |xxxxxxxxxxxxx |xxxxxxxxxxxxx |xxxxxxxxxxxxx |xxxxxxxxxxxxx |       524665 |       524665 |       524665 |xxxxxxxxxxxxx |xxxxxxxxxxxxx |xxxxxxxxxxxxx |xxxxxxxxxxxxx |      1048953 |      1048953 |      1048953 |xxxxxxxxxxxxx |xxxxxxxxxxxxx |xxxxxxxxxxxxx |xxxxxxxxxxxxx |      2097531 |      2097531 |      2097531 |xxxxxxxxxxxxx |xxxxxxxxxxxxx |xxxxxxxxxxxxx |xxxxxxxxxxxxx |      4194683 |      4194683 |      4194683 |xxxxxxxxxxxxx |xxxxxxxxxxxxx |xxxxxxxxxxxxx |xxxxxxxxxxxxx |      8388987 |      8388987 |      8388987 |
bpred_bimod.retstack_pops                     8558 |         8558 |         8558 |xxxxxxxxxxxxx |xxxxxxxxxxxxx |xxxxxxxxxxxxx |xxxxxxxxxxxxx |        16759 |        16759 |        16759 |xxxxxxxxxxxxx |xxxxxxxxxxxxx |xxxxxxxxxxxxx |xxxxxxxxxxxxx |        33143 |        33143 |        33143 |xxxxxxxxxxxxx |xxxxxxxxxxxxx |xxxxxxxxxxxxx |xxxxxxxxxxxxx |        65911 |        65911 |        65911 |xxxxxxxxxxxxx |xxxxxxxxxxxxx |xxxxxxxxxxxxx |xxxxxxxxxxxxx |       131447 |       131447 |       131447 |xxxxxxxxxxxxx |xxxxxxxxxxxxx |xxxxxxxxxxxxx |xxxxxxxxxxxxx |       262519 |       262519 |       262519 |xxxxxxxxxxxxx |xxxxxxxxxxxxx |xxxxxxxxxxxxx |xxxxxxxxxxxxx |       524663 |       524663 |       524663 |xxxxxxxxxxxxx |xxxxxxxxxxxxx |xxxxxxxxxxxxx |xxxxxxxxxxxxx |      1048951 |      1048951 |      1048951 |xxxxxxxxxxxxx |xxxxxxxxxxxxx |xxxxxxxxxxxxx |xxxxxxxxxxxxx |      2097529 |      2097529 |      2097529 |xxxxxxxxxxxxx |xxxxxxxxxxxxx |xxxxxxxxxxxxx |xxxxxxxxxxxxx |      4194681 |      4194681 |      4194681 |xxxxxxxxxxxxx |xxxxxxxxxxxxx |xxxxxxxxxxxxx |xxxxxxxxxxxxx |      8388985 |      8388985 |      8388985 |
bpred_bimod.used_ras.PP                       8558 |         8558 |         8558 |xxxxxxxxxxxxx |xxxxxxxxxxxxx |xxxxxxxxxxxxx |xxxxxxxxxxxxx |        16759 |        16759 |        16759 |xxxxxxxxxxxxx |xxxxxxxxxxxxx |xxxxxxxxxxxxx |xxxxxxxxxxxxx |        33143 |        33143 |        33143 |xxxxxxxxxxxxx |xxxxxxxxxxxxx |xxxxxxxxxxxxx |xxxxxxxxxxxxx |        65911 |        65911 |        65911 |xxxxxxxxxxxxx |xxxxxxxxxxxxx |xxxxxxxxxxxxx |xxxxxxxxxxxxx |       131447 |       131447 |       131447 |xxxxxxxxxxxxx |xxxxxxxxxxxxx |xxxxxxxxxxxxx |xxxxxxxxxxxxx |       262519 |       262519 |       262519 |xxxxxxxxxxxxx |xxxxxxxxxxxxx |xxxxxxxxxxxxx |xxxxxxxxxxxxx |       524663 |       524663 |       524663 |xxxxxxxxxxxxx |xxxxxxxxxxxxx |xxxxxxxxxxxxx |xxxxxxxxxxxxx |      1048951 |      1048951 |      1048951 |xxxxxxxxxxxxx |xxxxxxxxxxxxx |xxxxxxxxxxxxx |xxxxxxxxxxxxx |      2097529 |      2097529 |      2097529 |xxxxxxxxxxxxx |xxxxxxxxxxxxx |xxxxxxxxxxxxx |xxxxxxxxxxxxx |      4194681 |      4194681 |      4194681 |xxxxxxxxxxxxx |xxxxxxxxxxxxx |xxxxxxxxxxxxx |xxxxxxxxxxxxx |      8388985 |      8388985 |      8388985 |
bpred_bimod.ras_hits.PP                       8558 |         8558 |         8558 |xxxxxxxxxxxxx |xxxxxxxxxxxxx |xxxxxxxxxxxxx |xxxxxxxxxxxxx |        16758 |        16758 |        16758 |xxxxxxxxxxxxx |xxxxxxxxxxxxx |xxxxxxxxxxxxx |xxxxxxxxxxxxx |        33142 |        33142 |        33142 |xxxxxxxxxxxxx |xxxxxxxxxxxxx |xxxxxxxxxxxxx |xxxxxxxxxxxxx |        65910 |        65910 |        65910 |xxxxxxxxxxxxx |xxxxxxxxxxxxx |xxxxxxxxxxxxx |xxxxxxxxxxxxx |       131446 |       131446 |       131446 |xxxxxxxxxxxxx |xxxxxxxxxxxxx |xxxxxxxxxxxxx |xxxxxxxxxxxxx |       262518 |       262518 |       262518 |xxxxxxxxxxxxx |xxxxxxxxxxxxx |xxxxxxxxxxxxx |xxxxxxxxxxxxx |       524662 |       524662 |       524662 |xxxxxxxxxxxxx |xxxxxxxxxxxxx |xxxxxxxxxxxxx |xxxxxxxxxxxxx |      1048950 |      1048950 |      1048950 |xxxxxxxxxxxxx |xxxxxxxxxxxxx |xxxxxxxxxxxxx |xxxxxxxxxxxxx |      2097529 |      2097529 |      2097529 |xxxxxxxxxxxxx |xxxxxxxxxxxxx |xxxxxxxxxxxxx |xxxxxxxxxxxxx |      4194681 |      4194681 |      4194681 |xxxxxxxxxxxxx |xxxxxxxxxxxxx |xxxxxxxxxxxxx |xxxxxxxxxxxxx |      8388985 |      8388985 |      8388985 |
bpred_bimod.ras_rate.PP                     1.0000 |       1.0000 |       1.0000 |xxxxxxxxxxxxx |xxxxxxxxxxxxx |xxxxxxxxxxxxx |xxxxxxxxxxxxx |       0.9999 |       0.9999 |       0.9999 |xxxxxxxxxxxxx |xxxxxxxxxxxxx |xxxxxxxxxxxxx |xxxxxxxxxxxxx |       1.0000 |       1.0000 |       1.0000 |xxxxxxxxxxxxx |xxxxxxxxxxxxx |xxxxxxxxxxxxx |xxxxxxxxxxxxx |       1.0000 |       1.0000 |       1.0000 |xxxxxxxxxxxxx |xxxxxxxxxxxxx |xxxxxxxxxxxxx |xxxxxxxxxxxxx |       1.0000 |       1.0000 |       1.0000 |xxxxxxxxxxxxx |xxxxxxxxxxxxx |xxxxxxxxxxxxx |xxxxxxxxxxxxx |       1.0000 |       1.0000 |       1.0000 |xxxxxxxxxxxxx |xxxxxxxxxxxxx |xxxxxxxxxxxxx |xxxxxxxxxxxxx |       1.0000 |       1.0000 |       1.0000 |xxxxxxxxxxxxx |xxxxxxxxxxxxx |xxxxxxxxxxxxx |xxxxxxxxxxxxx |       1.0000 |       1.0000 |       1.0000 |xxxxxxxxxxxxx |xxxxxxxxxxxxx |xxxxxxxxxxxxx |xxxxxxxxxxxxx |       1.0000 |       1.0000 |       1.0000 |xxxxxxxxxxxxx |xxxxxxxxxxxxx |xxxxxxxxxxxxx |xxxxxxxxxxxxx |       1.0000 |       1.0000 |       1.0000 |xxxxxxxxxxxxx |xxxxxxxxxxxxx |xxxxxxxxxxxxx |xxxxxxxxxxxxx |       1.0000 |       1.0000 |       1.0000 |
bpred_2lev.lookups                   xxxxxxxxxxxxx |xxxxxxxxxxxxx |xxxxxxxxxxxxx |        44408 |        44408 |        44408 |        44408 |xxxxxxxxxxxxx |xxxxxxxxxxxxx |xxxxxxxxxxxxx |        85920 |        85920 |        85920 |        85920 |xxxxxxxxxxxxx |xxxxxxxxxxxxx |xxxxxxxxxxxxx |       168864 |       168864 |       168864 |       168864 |xxxxxxxxxxxxx |xxxxxxxxxxxxx |xxxxxxxxxxxxx |       334752 |       334752 |       334752 |       334752 |xxxxxxxxxxxxx |xxxxxxxxxxxxx |xxxxxxxxxxxxx |       666528 |       666528 |       666528 |       666528 |xxxxxxxxxxxxx |xxxxxxxxxxxxx |xxxxxxxxxxxxx |      1330080 |      1330080 |      1330080 |      1330080 |xxxxxxxxxxxxx |xxxxxxxxxxxxx |xxxxxxxxxxxxx |      2657184 |      2657184 |      2657184 |      2657184 |xxxxxxxxxxxxx |xxxxxxxxxxxxx |xxxxxxxxxxxxx |      5311392 |      5311392 |      5311392 |      5311392 |xxxxxxxxxxxxx |xxxxxxxxxxxxx |xxxxxxxxxxxxx |     10620601 |     10620601 |     10620601 |     10620601 |xxxxxxxxxxxxx |xxxxxxxxxxxxx |xxxxxxxxxxxxx |     21238204 |     21238204 |     21238204 |     21238204 |xxxxxxxxxxxxx |xxxxxxxxxxxxx |xxxxxxxxxxxxx |     42473407 |     42473407 |     42473407 |     42473407 |
[...]
bpred_2lev.retstack_pushes           xxxxxxxxxxxxx |xxxxxxxxxxxxx |xxxxxxxxxxxxx |         8560 |         8560 |         8560 |         8560 |xxxxxxxxxxxxx |xxxxxxxxxxxxx |xxxxxxxxxxxxx |        16761 |        16761 |        16761 |        16761 |xxxxxxxxxxxxx |xxxxxxxxxxxxx |xxxxxxxxxxxxx |        33145 |        33145 |        33145 |        33145 |xxxxxxxxxxxxx |xxxxxxxxxxxxx |xxxxxxxxxxxxx |        65913 |        65913 |        65913 |        65913 |xxxxxxxxxxxxx |xxxxxxxxxxxxx |xxxxxxxxxxxxx |       131449 |       131449 |       131449 |       131449 |xxxxxxxxxxxxx |xxxxxxxxxxxxx |xxxxxxxxxxxxx |       262521 |       262521 |       262521 |       262521 |xxxxxxxxxxxxx |xxxxxxxxxxxxx |xxxxxxxxxxxxx |       524665 |       524665 |       524665 |       524665 |xxxxxxxxxxxxx |xxxxxxxxxxxxx |xxxxxxxxxxxxx |      1048953 |      1048953 |      1048953 |      1048953 |xxxxxxxxxxxxx |xxxxxxxxxxxxx |xxxxxxxxxxxxx |      2097531 |      2097531 |      2097531 |      2097531 |xxxxxxxxxxxxx |xxxxxxxxxxxxx |xxxxxxxxxxxxx |      4194683 |      4194683 |      4194683 |      4194683 |xxxxxxxxxxxxx |xxxxxxxxxxxxx |xxxxxxxxxxxxx |      8388987 |      8388987 |      8388987 |      8388987 |
bpred_2lev.retstack_pops             xxxxxxxxxxxxx |xxxxxxxxxxxxx |xxxxxxxxxxxxx |         8558 |         8558 |         8558 |         8558 |xxxxxxxxxxxxx |xxxxxxxxxxxxx |xxxxxxxxxxxxx |        16759 |        16759 |        16759 |        16759 |xxxxxxxxxxxxx |xxxxxxxxxxxxx |xxxxxxxxxxxxx |        33143 |        33143 |        33143 |        33143 |xxxxxxxxxxxxx |xxxxxxxxxxxxx |xxxxxxxxxxxxx |        65911 |        65911 |        65911 |        65911 |xxxxxxxxxxxxx |xxxxxxxxxxxxx |xxxxxxxxxxxxx |       131447 |       131447 |       131447 |       131447 |xxxxxxxxxxxxx |xxxxxxxxxxxxx |xxxxxxxxxxxxx |       262519 |       262519 |       262519 |       262519 |xxxxxxxxxxxxx |xxxxxxxxxxxxx |xxxxxxxxxxxxx |       524663 |       524663 |       524663 |       524663 |xxxxxxxxxxxxx |xxxxxxxxxxxxx |xxxxxxxxxxxxx |      1048951 |      1048951 |      1048951 |      1048951 |xxxxxxxxxxxxx |xxxxxxxxxxxxx |xxxxxxxxxxxxx |      2097529 |      2097529 |      2097529 |      2097529 |xxxxxxxxxxxxx |xxxxxxxxxxxxx |xxxxxxxxxxxxx |      4194681 |      4194681 |      4194681 |      4194681 |xxxxxxxxxxxxx |xxxxxxxxxxxxx |xxxxxxxxxxxxx |      8388985 |      8388985 |      8388985 |      8388985 |
bpred_2lev.used_ras.PP               xxxxxxxxxxxxx |xxxxxxxxxxxxx |xxxxxxxxxxxxx |         8558 |         8558 |         8558 |         8558 |xxxxxxxxxxxxx |xxxxxxxxxxxxx |xxxxxxxxxxxxx |        16759 |        16759 |        16759 |        16759 |xxxxxxxxxxxxx |xxxxxxxxxxxxx |xxxxxxxxxxxxx |        33143 |        33143 |        33143 |        33143 |xxxxxxxxxxxxx |xxxxxxxxxxxxx |xxxxxxxxxxxxx |        65911 |        65911 |        65911 |        65911 |xxxxxxxxxxxxx |xxxxxxxxxxxxx |xxxxxxxxxxxxx |       131447 |       131447 |       131447 |       131447 |xxxxxxxxxxxxx |xxxxxxxxxxxxx |xxxxxxxxxxxxx |       262519 |       262519 |       262519 |       262519 |xxxxxxxxxxxxx |xxxxxxxxxxxxx |xxxxxxxxxxxxx |       524663 |       524663 |       524663 |       524663 |xxxxxxxxxxxxx |xxxxxxxxxxxxx |xxxxxxxxxxxxx |      1048951 |      1048951 |      1048951 |      1048951 |xxxxxxxxxxxxx |xxxxxxxxxxxxx |xxxxxxxxxxxxx |      2097529 |      2097529 |      2097529 |      2097529 |xxxxxxxxxxxxx |xxxxxxxxxxxxx |xxxxxxxxxxxxx |      4194681 |      4194681 |      4194681 |      4194681 |xxxxxxxxxxxxx |xxxxxxxxxxxxx |xxxxxxxxxxxxx |      8388985 |      8388985 |      8388985 |      8388985 |
bpred_2lev.ras_hits.PP               xxxxxxxxxxxxx |xxxxxxxxxxxxx |xxxxxxxxxxxxx |         8558 |         8558 |         8558 |         8558 |xxxxxxxxxxxxx |xxxxxxxxxxxxx |xxxxxxxxxxxxx |        16758 |        16758 |        16758 |        16758 |xxxxxxxxxxxxx |xxxxxxxxxxxxx |xxxxxxxxxxxxx |        33142 |        33142 |        33142 |        33142 |xxxxxxxxxxxxx |xxxxxxxxxxxxx |xxxxxxxxxxxxx |        65910 |        65910 |        65910 |        65910 |xxxxxxxxxxxxx |xxxxxxxxxxxxx |xxxxxxxxxxxxx |       131446 |       131446 |       131446 |       131446 |xxxxxxxxxxxxx |xxxxxxxxxxxxx |xxxxxxxxxxxxx |       262518 |       262518 |       262518 |       262518 |xxxxxxxxxxxxx |xxxxxxxxxxxxx |xxxxxxxxxxxxx |       524662 |       524662 |       524662 |       524662 |xxxxxxxxxxxxx |xxxxxxxxxxxxx |xxxxxxxxxxxxx |      1048950 |      1048950 |      1048950 |      1048950 |xxxxxxxxxxxxx |xxxxxxxxxxxxx |xxxxxxxxxxxxx |      2097529 |      2097529 |      2097529 |      2097529 |xxxxxxxxxxxxx |xxxxxxxxxxxxx |xxxxxxxxxxxxx |      4194681 |      4194681 |      4194681 |      4194681 |xxxxxxxxxxxxx |xxxxxxxxxxxxx |xxxxxxxxxxxxx |      8388985 |      8388985 |      8388985 |      8388985 |
bpred_2lev.ras_rate.PP               xxxxxxxxxxxxx |xxxxxxxxxxxxx |xxxxxxxxxxxxx |       1.0000 |       1.0000 |       1.0000 |       1.0000 |xxxxxxxxxxxxx |xxxxxxxxxxxxx |xxxxxxxxxxxxx |       0.9999 |       0.9999 |       0.9999 |       0.9999 |xxxxxxxxxxxxx |xxxxxxxxxxxxx |xxxxxxxxxxxxx |       1.0000 |       1.0000 |       1.0000 |       1.0000 |xxxxxxxxxxxxx |xxxxxxxxxxxxx |xxxxxxxxxxxxx |       1.0000 |       1.0000 |       1.0000 |       1.0000 |xxxxxxxxxxxxx |xxxxxxxxxxxxx |xxxxxxxxxxxxx |       1.0000 |       1.0000 |       1.0000 |       1.0000 |xxxxxxxxxxxxx |xxxxxxxxxxxxx |xxxxxxxxxxxxx |       1.0000 |       1.0000 |       1.0000 |       1.0000 |xxxxxxxxxxxxx |xxxxxxxxxxxxx |xxxxxxxxxxxxx |       1.0000 |       1.0000 |       1.0000 |       1.0000 |xxxxxxxxxxxxx |xxxxxxxxxxxxx |xxxxxxxxxxxxx |       1.0000 |       1.0000 |       1.0000 |       1.0000 |xxxxxxxxxxxxx |xxxxxxxxxxxxx |xxxxxxxxxxxxx |       1.0000 |       1.0000 |       1.0000 |       1.0000 |xxxxxxxxxxxxx |xxxxxxxxxxxxx |xxxxxxxxxxxxx |       1.0000 |       1.0000 |       1.0000 |       1.0000 |xxxxxxxxxxxxx |xxxxxxxxxxxxx |xxxxxxxxxxxxx |       1.0000 |       1.0000 |       1.0000 |       1.0000 |

Command list: 
	sslittle-na-sstrix-gcc -Wall -O3 -funroll-loops -finline-functions  -DRANDOM_SIZE=4096 -DSEED=0 -DSORT=base_radixsort base_radixsort483930551.c simpleMain.c -o base_radixsort1755935244
	sim-cache -cache:dl1 dl1:256:32:1:l -cache:dl2 dl2:131072:32:1:l -cache:il1 il1:256:32:1:l -cache:il2 dl2 base_radixsort1755935244
	sim-cache -cache:dl1 dl1:256:32:1:l -cache:dl2 dl2:65536:32:1:l -cache:il1 il1:256:32:1:l -cache:il2 dl2 base_radixsort1755935244
	sim-cache -cache:dl1 dl1:1:32:256:l -cache:dl2 dl2:1:32:131072:l -cache:il1 il1:1:32:256:l -cache:il2 dl2 base_radixsort1755935244
	sim-cache -cache:dl1 dl1:1:32:256:l -cache:dl2 dl2:1:32:65536:l -cache:il1 il1:1:32:256:l -cache:il2 dl2 base_radixsort1755935244
	sim-bpred -bpred bimod -bpred:bimod 512 base_radixsort1755935244
	sim-bpred -bpred bimod -bpred:bimod 1024 base_radixsort1755935244
	sim-bpred -bpred bimod -bpred:bimod 2048 base_radixsort1755935244
	sim-bpred -bpred 2lev -bpred:2lev 1 512 10 1 base_radixsort1755935244
	sim-bpred -bpred 2lev -bpred:2lev 1 1024 10 1 base_radixsort1755935244
	sim-bpred -bpred 2lev -bpred:2lev 1 2048 10 1 base_radixsort1755935244
	sim-bpred -bpred 2lev -bpred:2lev 1 4096 10 1 base_radixsort1755935244
	sslittle-na-sstrix-gcc -Wall -O3 -funroll-loops -finline-functions  -DRANDOM_SIZE=8192 -DSEED=0 -DSORT=base_radixsort base_radixsort483930551.c simpleMain.c -o base_radixsort1755935244
	sim-cache -cache:dl1 dl1:256:32:1:l -cache:dl2 dl2:131072:32:1:l -cache:il1 il1:256:32:1:l -cache:il2 dl2 base_radixsort1755935244
	sim-cache -cache:dl1 dl1:256:32:1:l -cache:dl2 dl2:65536:32:1:l -cache:il1 il1:256:32:1:l -cache:il2 dl2 base_radixsort1755935244
	sim-cache -cache:dl1 dl1:1:32:256:l -cache:dl2 dl2:1:32:131072:l -cache:il1 il1:1:32:256:l -cache:il2 dl2 base_radixsort1755935244
	sim-cache -cache:dl1 dl1:1:32:256:l -cache:dl2 dl2:1:32:65536:l -cache:il1 il1:1:32:256:l -cache:il2 dl2 base_radixsort1755935244
	sim-bpred -bpred bimod -bpred:bimod 512 base_radixsort1755935244
	sim-bpred -bpred bimod -bpred:bimod 1024 base_radixsort1755935244
	sim-bpred -bpred bimod -bpred:bimod 2048 base_radixsort1755935244
	sim-bpred -bpred 2lev -bpred:2lev 1 512 10 1 base_radixsort1755935244
	sim-bpred -bpred 2lev -bpred:2lev 1 1024 10 1 base_radixsort1755935244
	sim-bpred -bpred 2lev -bpred:2lev 1 2048 10 1 base_radixsort1755935244
	sim-bpred -bpred 2lev -bpred:2lev 1 4096 10 1 base_radixsort1755935244
	sslittle-na-sstrix-gcc -Wall -O3 -funroll-loops -finline-functions  -DRANDOM_SIZE=16384 -DSEED=0 -DSORT=base_radixsort base_radixsort483930551.c simpleMain.c -o base_radixsort1755935244
	sim-cache -cache:dl1 dl1:256:32:1:l -cache:dl2 dl2:131072:32:1:l -cache:il1 il1:256:32:1:l -cache:il2 dl2 base_radixsort1755935244
	sim-cache -cache:dl1 dl1:256:32:1:l -cache:dl2 dl2:65536:32:1:l -cache:il1 il1:256:32:1:l -cache:il2 dl2 base_radixsort1755935244
	sim-cache -cache:dl1 dl1:1:32:256:l -cache:dl2 dl2:1:32:131072:l -cache:il1 il1:1:32:256:l -cache:il2 dl2 base_radixsort1755935244
	sim-cache -cache:dl1 dl1:1:32:256:l -cache:dl2 dl2:1:32:65536:l -cache:il1 il1:1:32:256:l -cache:il2 dl2 base_radixsort1755935244
	sim-bpred -bpred bimod -bpred:bimod 512 base_radixsort1755935244
	sim-bpred -bpred bimod -bpred:bimod 1024 base_radixsort1755935244
	sim-bpred -bpred bimod -bpred:bimod 2048 base_radixsort1755935244
	sim-bpred -bpred 2lev -bpred:2lev 1 512 10 1 base_radixsort1755935244
	sim-bpred -bpred 2lev -bpred:2lev 1 1024 10 1 base_radixsort1755935244
	sim-bpred -bpred 2lev -bpred:2lev 1 2048 10 1 base_radixsort1755935244
	sim-bpred -bpred 2lev -bpred:2lev 1 4096 10 1 base_radixsort1755935244
	sslittle-na-sstrix-gcc -Wall -O3 -funroll-loops -finline-functions  -DRANDOM_SIZE=32768 -DSEED=0 -DSORT=base_radixsort base_radixsort483930551.c simpleMain.c -o base_radixsort1755935244
	sim-cache -cache:dl1 dl1:256:32:1:l -cache:dl2 dl2:131072:32:1:l -cache:il1 il1:256:32:1:l -cache:il2 dl2 base_radixsort1755935244
	sim-cache -cache:dl1 dl1:256:32:1:l -cache:dl2 dl2:65536:32:1:l -cache:il1 il1:256:32:1:l -cache:il2 dl2 base_radixsort1755935244
	sim-cache -cache:dl1 dl1:1:32:256:l -cache:dl2 dl2:1:32:131072:l -cache:il1 il1:1:32:256:l -cache:il2 dl2 base_radixsort1755935244
	sim-cache -cache:dl1 dl1:1:32:256:l -cache:dl2 dl2:1:32:65536:l -cache:il1 il1:1:32:256:l -cache:il2 dl2 base_radixsort1755935244
	sim-bpred -bpred bimod -bpred:bimod 512 base_radixsort1755935244
	sim-bpred -bpred bimod -bpred:bimod 1024 base_radixsort1755935244
	sim-bpred -bpred bimod -bpred:bimod 2048 base_radixsort1755935244
	sim-bpred -bpred 2lev -bpred:2lev 1 512 10 1 base_radixsort1755935244
	sim-bpred -bpred 2lev -bpred:2lev 1 1024 10 1 base_radixsort1755935244
	sim-bpred -bpred 2lev -bpred:2lev 1 2048 10 1 base_radixsort1755935244
	sim-bpred -bpred 2lev -bpred:2lev 1 4096 10 1 base_radixsort1755935244
	sslittle-na-sstrix-gcc -Wall -O3 -funroll-loops -finline-functions  -DRANDOM_SIZE=65536 -DSEED=0 -DSORT=base_radixsort base_radixsort483930551.c simpleMain.c -o base_radixsort1755935244
	sim-cache -cache:dl1 dl1:256:32:1:l -cache:dl2 dl2:131072:32:1:l -cache:il1 il1:256:32:1:l -cache:il2 dl2 base_radixsort1755935244
	sim-cache -cache:dl1 dl1:256:32:1:l -cache:dl2 dl2:65536:32:1:l -cache:il1 il1:256:32:1:l -cache:il2 dl2 base_radixsort1755935244
	sim-cache -cache:dl1 dl1:1:32:256:l -cache:dl2 dl2:1:32:131072:l -cache:il1 il1:1:32:256:l -cache:il2 dl2 base_radixsort1755935244
	sim-cache -cache:dl1 dl1:1:32:256:l -cache:dl2 dl2:1:32:65536:l -cache:il1 il1:1:32:256:l -cache:il2 dl2 base_radixsort1755935244
	sim-bpred -bpred bimod -bpred:bimod 512 base_radixsort1755935244
	sim-bpred -bpred bimod -bpred:bimod 1024 base_radixsort1755935244
	sim-bpred -bpred bimod -bpred:bimod 2048 base_radixsort1755935244
	sim-bpred -bpred 2lev -bpred:2lev 1 512 10 1 base_radixsort1755935244
	sim-bpred -bpred 2lev -bpred:2lev 1 1024 10 1 base_radixsort1755935244
	sim-bpred -bpred 2lev -bpred:2lev 1 2048 10 1 base_radixsort1755935244
	sim-bpred -bpred 2lev -bpred:2lev 1 4096 10 1 base_radixsort1755935244
	sslittle-na-sstrix-gcc -Wall -O3 -funroll-loops -finline-functions  -DRANDOM_SIZE=131072 -DSEED=0 -DSORT=base_radixsort base_radixsort483930551.c simpleMain.c -o base_radixsort1755935244
	sim-cache -cache:dl1 dl1:256:32:1:l -cache:dl2 dl2:131072:32:1:l -cache:il1 il1:256:32:1:l -cache:il2 dl2 base_radixsort1755935244
	sim-cache -cache:dl1 dl1:256:32:1:l -cache:dl2 dl2:65536:32:1:l -cache:il1 il1:256:32:1:l -cache:il2 dl2 base_radixsort1755935244
	sim-cache -cache:dl1 dl1:1:32:256:l -cache:dl2 dl2:1:32:131072:l -cache:il1 il1:1:32:256:l -cache:il2 dl2 base_radixsort1755935244
	sim-cache -cache:dl1 dl1:1:32:256:l -cache:dl2 dl2:1:32:65536:l -cache:il1 il1:1:32:256:l -cache:il2 dl2 base_radixsort1755935244
	sim-bpred -bpred bimod -bpred:bimod 512 base_radixsort1755935244
	sim-bpred -bpred bimod -bpred:bimod 1024 base_radixsort1755935244
	sim-bpred -bpred bimod -bpred:bimod 2048 base_radixsort1755935244
	sim-bpred -bpred 2lev -bpred:2lev 1 512 10 1 base_radixsort1755935244
	sim-bpred -bpred 2lev -bpred:2lev 1 1024 10 1 base_radixsort1755935244
	sim-bpred -bpred 2lev -bpred:2lev 1 2048 10 1 base_radixsort1755935244
	sim-bpred -bpred 2lev -bpred:2lev 1 4096 10 1 base_radixsort1755935244
	sslittle-na-sstrix-gcc -Wall -O3 -funroll-loops -finline-functions  -DRANDOM_SIZE=262144 -DSEED=0 -DSORT=base_radixsort base_radixsort483930551.c simpleMain.c -o base_radixsort1755935244
	sim-cache -cache:dl1 dl1:256:32:1:l -cache:dl2 dl2:131072:32:1:l -cache:il1 il1:256:32:1:l -cache:il2 dl2 base_radixsort1755935244
	sim-cache -cache:dl1 dl1:256:32:1:l -cache:dl2 dl2:65536:32:1:l -cache:il1 il1:256:32:1:l -cache:il2 dl2 base_radixsort1755935244
	sim-cache -cache:dl1 dl1:1:32:256:l -cache:dl2 dl2:1:32:131072:l -cache:il1 il1:1:32:256:l -cache:il2 dl2 base_radixsort1755935244
	sim-cache -cache:dl1 dl1:1:32:256:l -cache:dl2 dl2:1:32:65536:l -cache:il1 il1:1:32:256:l -cache:il2 dl2 base_radixsort1755935244
	sim-bpred -bpred bimod -bpred:bimod 512 base_radixsort1755935244
	sim-bpred -bpred bimod -bpred:bimod 1024 base_radixsort1755935244
	sim-bpred -bpred bimod -bpred:bimod 2048 base_radixsort1755935244
	sim-bpred -bpred 2lev -bpred:2lev 1 512 10 1 base_radixsort1755935244
	sim-bpred -bpred 2lev -bpred:2lev 1 1024 10 1 base_radixsort1755935244
	sim-bpred -bpred 2lev -bpred:2lev 1 2048 10 1 base_radixsort1755935244
	sim-bpred -bpred 2lev -bpred:2lev 1 4096 10 1 base_radixsort1755935244
	sslittle-na-sstrix-gcc -Wall -O3 -funroll-loops -finline-functions  -DRANDOM_SIZE=524288 -DSEED=0 -DSORT=base_radixsort base_radixsort483930551.c simpleMain.c -o base_radixsort1755935244
	sim-cache -cache:dl1 dl1:256:32:1:l -cache:dl2 dl2:131072:32:1:l -cache:il1 il1:256:32:1:l -cache:il2 dl2 base_radixsort1755935244
	sim-cache -cache:dl1 dl1:256:32:1:l -cache:dl2 dl2:65536:32:1:l -cache:il1 il1:256:32:1:l -cache:il2 dl2 base_radixsort1755935244
	sim-cache -cache:dl1 dl1:1:32:256:l -cache:dl2 dl2:1:32:131072:l -cache:il1 il1:1:32:256:l -cache:il2 dl2 base_radixsort1755935244
	sim-cache -cache:dl1 dl1:1:32:256:l -cache:dl2 dl2:1:32:65536:l -cache:il1 il1:1:32:256:l -cache:il2 dl2 base_radixsort1755935244
	sim-bpred -bpred bimod -bpred:bimod 512 base_radixsort1755935244
	sim-bpred -bpred bimod -bpred:bimod 1024 base_radixsort1755935244
	sim-bpred -bpred bimod -bpred:bimod 2048 base_radixsort1755935244
	sim-bpred -bpred 2lev -bpred:2lev 1 512 10 1 base_radixsort1755935244
	sim-bpred -bpred 2lev -bpred:2lev 1 1024 10 1 base_radixsort1755935244
	sim-bpred -bpred 2lev -bpred:2lev 1 2048 10 1 base_radixsort1755935244
	sim-bpred -bpred 2lev -bpred:2lev 1 4096 10 1 base_radixsort1755935244
	sslittle-na-sstrix-gcc -Wall -O3 -funroll-loops -finline-functions  -DRANDOM_SIZE=1048576 -DSEED=0 -DSORT=base_radixsort base_radixsort483930551.c simpleMain.c -o base_radixsort1755935244
	sim-cache -cache:dl1 dl1:256:32:1:l -cache:dl2 dl2:131072:32:1:l -cache:il1 il1:256:32:1:l -cache:il2 dl2 base_radixsort1755935244
	sim-cache -cache:dl1 dl1:256:32:1:l -cache:dl2 dl2:65536:32:1:l -cache:il1 il1:256:32:1:l -cache:il2 dl2 base_radixsort1755935244
	sim-cache -cache:dl1 dl1:1:32:256:l -cache:dl2 dl2:1:32:131072:l -cache:il1 il1:1:32:256:l -cache:il2 dl2 base_radixsort1755935244
	sim-cache -cache:dl1 dl1:1:32:256:l -cache:dl2 dl2:1:32:65536:l -cache:il1 il1:1:32:256:l -cache:il2 dl2 base_radixsort1755935244
	sim-bpred -bpred bimod -bpred:bimod 512 base_radixsort1755935244
	sim-bpred -bpred bimod -bpred:bimod 1024 base_radixsort1755935244
	sim-bpred -bpred bimod -bpred:bimod 2048 base_radixsort1755935244
	sim-bpred -bpred 2lev -bpred:2lev 1 512 10 1 base_radixsort1755935244
	sim-bpred -bpred 2lev -bpred:2lev 1 1024 10 1 base_radixsort1755935244
	sim-bpred -bpred 2lev -bpred:2lev 1 2048 10 1 base_radixsort1755935244
	sim-bpred -bpred 2lev -bpred:2lev 1 4096 10 1 base_radixsort1755935244
	sslittle-na-sstrix-gcc -Wall -O3 -funroll-loops -finline-functions  -DRANDOM_SIZE=2097152 -DSEED=0 -DSORT=base_radixsort base_radixsort483930551.c simpleMain.c -o base_radixsort1755935244
	sim-cache -cache:dl1 dl1:256:32:1:l -cache:dl2 dl2:131072:32:1:l -cache:il1 il1:256:32:1:l -cache:il2 dl2 base_radixsort1755935244
	sim-cache -cache:dl1 dl1:256:32:1:l -cache:dl2 dl2:65536:32:1:l -cache:il1 il1:256:32:1:l -cache:il2 dl2 base_radixsort1755935244
	sim-cache -cache:dl1 dl1:1:32:256:l -cache:dl2 dl2:1:32:131072:l -cache:il1 il1:1:32:256:l -cache:il2 dl2 base_radixsort1755935244
	sim-cache -cache:dl1 dl1:1:32:256:l -cache:dl2 dl2:1:32:65536:l -cache:il1 il1:1:32:256:l -cache:il2 dl2 base_radixsort1755935244
	sim-bpred -bpred bimod -bpred:bimod 512 base_radixsort1755935244
	sim-bpred -bpred bimod -bpred:bimod 1024 base_radixsort1755935244
	sim-bpred -bpred bimod -bpred:bimod 2048 base_radixsort1755935244
	sim-bpred -bpred 2lev -bpred:2lev 1 512 10 1 base_radixsort1755935244
	sim-bpred -bpred 2lev -bpred:2lev 1 1024 10 1 base_radixsort1755935244
	sim-bpred -bpred 2lev -bpred:2lev 1 2048 10 1 base_radixsort1755935244
	sim-bpred -bpred 2lev -bpred:2lev 1 4096 10 1 base_radixsort1755935244
	sslittle-na-sstrix-gcc -Wall -O3 -funroll-loops -finline-functions  -DRANDOM_SIZE=4194304 -DSEED=0 -DSORT=base_radixsort base_radixsort483930551.c simpleMain.c -o base_radixsort1755935244
	sim-cache -cache:dl1 dl1:256:32:1:l -cache:dl2 dl2:131072:32:1:l -cache:il1 il1:256:32:1:l -cache:il2 dl2 base_radixsort1755935244
	sim-cache -cache:dl1 dl1:256:32:1:l -cache:dl2 dl2:65536:32:1:l -cache:il1 il1:256:32:1:l -cache:il2 dl2 base_radixsort1755935244
	sim-cache -cache:dl1 dl1:1:32:256:l -cache:dl2 dl2:1:32:131072:l -cache:il1 il1:1:32:256:l -cache:il2 dl2 base_radixsort1755935244
	sim-cache -cache:dl1 dl1:1:32:256:l -cache:dl2 dl2:1:32:65536:l -cache:il1 il1:1:32:256:l -cache:il2 dl2 base_radixsort1755935244
	sim-bpred -bpred bimod -bpred:bimod 512 base_radixsort1755935244
	sim-bpred -bpred bimod -bpred:bimod 1024 base_radixsort1755935244
	sim-bpred -bpred bimod -bpred:bimod 2048 base_radixsort1755935244
	sim-bpred -bpred 2lev -bpred:2lev 1 512 10 1 base_radixsort1755935244
	sim-bpred -bpred 2lev -bpred:2lev 1 1024 10 1 base_radixsort1755935244
	sim-bpred -bpred 2lev -bpred:2lev 1 2048 10 1 base_radixsort1755935244
	sim-bpred -bpred 2lev -bpred:2lev 1 4096 10 1 base_radixsort1755935244
