Wed Mar 24 03:05:17 2004
Run as: "./simple -c  base_mergesort"
-------------------------------------------------------------------------------------------------
sim-cache                                     4096 |         4096 |         4096 |         4096 |         8192 |         8192 |         8192 |         8192 |        16384 |        16384 |        16384 |        16384 |        32768 |        32768 |        32768 |        32768 |        65536 |        65536 |        65536 |        65536 |       131072 |       131072 |       131072 |       131072 |       262144 |       262144 |       262144 |       262144 |       524288 |       524288 |       524288 |       524288 |      1048576 |      1048576 |      1048576 |      1048576 |      2097152 |      2097152 |      2097152 |      2097152 |      4194304 |      4194304 |      4194304 |      4194304 |
-cache:dl1 dl1:256:32:1:l -cache:dl2 dl2:131072:32:1:l -cache:il1 il1:256:32:1:l -cache:il2 dl2
-cache:dl1 dl1:256:32:1:l -cache:dl2 dl2:65536:32:1:l -cache:il1 il1:256:32:1:l -cache:il2 dl2
-cache:dl1 dl1:1:32:256:l -cache:dl2 dl2:1:32:131072:l -cache:il1 il1:1:32:256:l -cache:il2 dl2
-cache:dl1 dl1:1:32:256:l -cache:dl2 dl2:1:32:65536:l -cache:il1 il1:1:32:256:l -cache:il2 dl2
-------------------------------------------------------------------------------------------------
sim_num_insn                                889432 |       889432 |       889432 |       889432 |      1918875 |      1918875 |      1918875 |      1918875 |      4050622 |      4050622 |      4050622 |      4050622 |      8707597 |      8707597 |      8707597 |      8707597 |     18321067 |     18321067 |     18321067 |     18321067 |     39143608 |     39143608 |     39143608 |     39143608 |     81932571 |     81932571 |     81932571 |     81932571 |    173809186 |    173809186 |    173809186 |    173809186 |    362254562 |    362254562 |    362254562 |    362254562 |    764366428 |    764366428 |    764366428 |    764366428 |   1587420142 |   1587420142 |   1587420142 |   1587420142 |
sim_num_refs                                271589 |       271589 |       271589 |       271589 |       588650 |       588650 |       588650 |       588650 |      1210369 |      1210369 |      1210369 |      1210369 |      2625928 |      2625928 |      2625928 |      2625928 |      5408745 |      5408745 |      5408745 |      5408745 |     11666966 |     11666966 |     11666966 |     11666966 |     23979329 |     23979329 |     23979329 |     23979329 |     51357704 |     51357704 |     51357704 |     51357704 |    105328125 |    105328125 |    105328125 |    105328125 |    224279054 |    224279054 |    224279054 |    224279054 |    459023225 |    459023225 |    459023225 |    459023225 |
sim_elapsed_time                                 1 |            1 |           20 |           10 |            1 |            1 |           31 |           16 |            2 |            3 |           52 |           27 |            5 |            5 |           95 |           48 |           10 |           10 |          174 |           88 |           21 |           22 |          322 |          152 |           45 |           44 |          552 |          217 |           95 |           94 |          773 |          273 |          194 |          196 |          889 |          388 |          414 |          413 |         1144 |          641 |          847 |          859 |         1644 |         1148 |
sim_inst_rate                          889432.0000 |  889432.0000 |   44471.6000 |   88943.2000 | 1918875.0000 | 1918875.0000 |   61899.1935 |  119929.6875 | 2025311.0000 | 1350207.3333 |   77896.5769 |  150023.0370 | 1741519.4000 | 1741519.4000 |   91658.9158 |  181408.2708 | 1832106.7000 | 1832106.7000 |  105293.4885 |  208193.9432 | 1863981.3333 | 1779254.9091 |  121564.0000 |  257523.7368 | 1820723.8000 | 1862103.8864 |  148428.5707 |  377569.4516 | 1829570.3789 | 1849033.8936 |  224850.1759 |  636663.6850 | 1867291.5567 | 1848237.5612 |  407485.4466 |  933645.7784 | 1846295.7198 | 1850766.1695 |  668152.4720 | 1192459.3261 | 1874167.8182 | 1847986.1956 |  965584.0280 | 1382770.1585 |
il1.accesses                                889432 |       889432 |       889432 |       889432 |      1918875 |      1918875 |      1918875 |      1918875 |      4050622 |      4050622 |      4050622 |      4050622 |      8707597 |      8707597 |      8707597 |      8707597 |     18321067 |     18321067 |     18321067 |     18321067 |     39143608 |     39143608 |     39143608 |     39143608 |     81932571 |     81932571 |     81932571 |     81932571 |    173809186 |    173809186 |    173809186 |    173809186 |    362254562 |    362254562 |    362254562 |    362254562 |    764366428 |    764366428 |    764366428 |    764366428 |   1587420142 |   1587420142 |   1587420142 |   1587420142 |
il1.hits                                    888960 |       888960 |       889011 |       889011 |      1918351 |      1918351 |      1918409 |      1918409 |      4050132 |      4050132 |      4050181 |      4050181 |      8707087 |      8707087 |      8707136 |      8707136 |     18320577 |     18320577 |     18320624 |     18320624 |     39143097 |     39143097 |     39143146 |     39143146 |     81932081 |     81932081 |     81932128 |     81932128 |    173808675 |    173808675 |    173808724 |    173808724 |    362254037 |    362254037 |    362254090 |    362254090 |    764365901 |    764365901 |    764365954 |    764365954 |   1587419617 |   1587419617 |   1587419670 |   1587419670 |
il1.misses                                     472 |          472 |          421 |          421 |          524 |          524 |          466 |          466 |          490 |          490 |          441 |          441 |          510 |          510 |          461 |          461 |          490 |          490 |          443 |          443 |          511 |          511 |          462 |          462 |          490 |          490 |          443 |          443 |          511 |          511 |          462 |          462 |          525 |          525 |          472 |          472 |          527 |          527 |          474 |          474 |          525 |          525 |          472 |          472 |
il1.replacements                               250 |          250 |          165 |          165 |          290 |          290 |          210 |          210 |          275 |          275 |          185 |          185 |          282 |          282 |          205 |          205 |          276 |          276 |          187 |          187 |          283 |          283 |          206 |          206 |          276 |          276 |          187 |          187 |          283 |          283 |          206 |          206 |          284 |          284 |          216 |          216 |          286 |          286 |          218 |          218 |          284 |          284 |          216 |          216 |
il1.writebacks                                   0 |            0 |            0 |            0 |            0 |            0 |            0 |            0 |            0 |            0 |            0 |            0 |            0 |            0 |            0 |            0 |            0 |            0 |            0 |            0 |            0 |            0 |            0 |            0 |            0 |            0 |            0 |            0 |            0 |            0 |            0 |            0 |            0 |            0 |            0 |            0 |            0 |            0 |            0 |            0 |            0 |            0 |            0 |            0 |
il1.invalidations                                0 |            0 |            0 |            0 |            0 |            0 |            0 |            0 |            0 |            0 |            0 |            0 |            0 |            0 |            0 |            0 |            0 |            0 |            0 |            0 |            0 |            0 |            0 |            0 |            0 |            0 |            0 |            0 |            0 |            0 |            0 |            0 |            0 |            0 |            0 |            0 |            0 |            0 |            0 |            0 |            0 |            0 |            0 |            0 |
il1.miss_rate                               0.0005 |       0.0005 |       0.0005 |       0.0005 |       0.0003 |       0.0003 |       0.0002 |       0.0002 |       0.0001 |       0.0001 |       0.0001 |       0.0001 |       0.0001 |       0.0001 |       0.0001 |       0.0001 |       0.0000 |       0.0000 |       0.0000 |       0.0000 |       0.0000 |       0.0000 |       0.0000 |       0.0000 |       0.0000 |       0.0000 |       0.0000 |       0.0000 |       0.0000 |       0.0000 |       0.0000 |       0.0000 |       0.0000 |       0.0000 |       0.0000 |       0.0000 |       0.0000 |       0.0000 |       0.0000 |       0.0000 |       0.0000 |       0.0000 |       0.0000 |       0.0000 |
il1.repl_rate                               0.0003 |       0.0003 |       0.0002 |       0.0002 |       0.0002 |       0.0002 |       0.0001 |       0.0001 |       0.0001 |       0.0001 |       0.0000 |       0.0000 |       0.0000 |       0.0000 |       0.0000 |       0.0000 |       0.0000 |       0.0000 |       0.0000 |       0.0000 |       0.0000 |       0.0000 |       0.0000 |       0.0000 |       0.0000 |       0.0000 |       0.0000 |       0.0000 |       0.0000 |       0.0000 |       0.0000 |       0.0000 |       0.0000 |       0.0000 |       0.0000 |       0.0000 |       0.0000 |       0.0000 |       0.0000 |       0.0000 |       0.0000 |       0.0000 |       0.0000 |       0.0000 |
il1.wb_rate                                 0.0000 |       0.0000 |       0.0000 |       0.0000 |       0.0000 |       0.0000 |       0.0000 |       0.0000 |       0.0000 |       0.0000 |       0.0000 |       0.0000 |       0.0000 |       0.0000 |       0.0000 |       0.0000 |       0.0000 |       0.0000 |       0.0000 |       0.0000 |       0.0000 |       0.0000 |       0.0000 |       0.0000 |       0.0000 |       0.0000 |       0.0000 |       0.0000 |       0.0000 |       0.0000 |       0.0000 |       0.0000 |       0.0000 |       0.0000 |       0.0000 |       0.0000 |       0.0000 |       0.0000 |       0.0000 |       0.0000 |       0.0000 |       0.0000 |       0.0000 |       0.0000 |
il1.inv_rate                                0.0000 |       0.0000 |       0.0000 |       0.0000 |       0.0000 |       0.0000 |       0.0000 |       0.0000 |       0.0000 |       0.0000 |       0.0000 |       0.0000 |       0.0000 |       0.0000 |       0.0000 |       0.0000 |       0.0000 |       0.0000 |       0.0000 |       0.0000 |       0.0000 |       0.0000 |       0.0000 |       0.0000 |       0.0000 |       0.0000 |       0.0000 |       0.0000 |       0.0000 |       0.0000 |       0.0000 |       0.0000 |       0.0000 |       0.0000 |       0.0000 |       0.0000 |       0.0000 |       0.0000 |       0.0000 |       0.0000 |       0.0000 |       0.0000 |       0.0000 |       0.0000 |
dl1.accesses                                271659 |       271659 |       271659 |       271659 |       588720 |       588720 |       588720 |       588720 |      1210439 |      1210439 |      1210439 |      1210439 |      2625998 |      2625998 |      2625998 |      2625998 |      5408815 |      5408815 |      5408815 |      5408815 |     11667036 |     11667036 |     11667036 |     11667036 |     23979399 |     23979399 |     23979399 |     23979399 |     51357774 |     51357774 |     51357774 |     51357774 |    105328195 |    105328195 |    105328195 |    105328195 |    224279124 |    224279124 |    224279124 |    224279124 |    459023295 |    459023295 |    459023295 |    459023295 |
dl1.hits                                    251236 |       251236 |       259930 |       259930 |       543902 |       543902 |       561618 |       561618 |      1120888 |      1120888 |      1156701 |      1156701 |      2430135 |      2430135 |      2502592 |      2502592 |      5014995 |      5014995 |      5162469 |      5162469 |     10812222 |     10812222 |     11109262 |     11109262 |     22262251 |     22262251 |     22864317 |     22864317 |     47647957 |     47647957 |     48865920 |     48865920 |     97879066 |     97879066 |    100343794 |    100343794 |    208276986 |    208276986 |    213262591 |    213262591 |    426905783 |    426905783 |    436991086 |    436991086 |
dl1.misses                                   20423 |        20423 |        11729 |        11729 |        44818 |        44818 |        27102 |        27102 |        89551 |        89551 |        53738 |        53738 |       195863 |       195863 |       123406 |       123406 |       393820 |       393820 |       246346 |       246346 |       854814 |       854814 |       557774 |       557774 |      1717148 |      1717148 |      1115082 |      1115082 |      3709817 |      3709817 |      2491854 |      2491854 |      7449129 |      7449129 |      4984401 |      4984401 |     16002138 |     16002138 |     11016533 |     11016533 |     32117512 |     32117512 |     22032209 |     22032209 |
dl1.replacements                             20167 |        20167 |        11473 |        11473 |        44562 |        44562 |        26846 |        26846 |        89295 |        89295 |        53482 |        53482 |       195607 |       195607 |       123150 |       123150 |       393564 |       393564 |       246090 |       246090 |       854558 |       854558 |       557518 |       557518 |      1716892 |      1716892 |      1114826 |      1114826 |      3709561 |      3709561 |      2491598 |      2491598 |      7448873 |      7448873 |      4984145 |      4984145 |     16001882 |     16001882 |     11016277 |     11016277 |     32117256 |     32117256 |     22031953 |     22031953 |
dl1.writebacks                               10611 |        10611 |         6452 |         6452 |        23070 |        23070 |        14653 |        14653 |        46184 |        46184 |        28997 |        28997 |       100375 |       100375 |        65884 |        65884 |       201333 |       201333 |       131460 |       131460 |       435568 |       435568 |       295385 |       295385 |       873204 |       873204 |       590464 |       590464 |      1880704 |      1880704 |      1311697 |      1311697 |      3769220 |      3769220 |      2623846 |      2623846 |      8076928 |      8076928 |      5771677 |      5771677 |     16184213 |     16184213 |     11543032 |     11543032 |
dl1.invalidations                                0 |            0 |            0 |            0 |            0 |            0 |            0 |            0 |            0 |            0 |            0 |            0 |            0 |            0 |            0 |            0 |            0 |            0 |            0 |            0 |            0 |            0 |            0 |            0 |            0 |            0 |            0 |            0 |            0 |            0 |            0 |            0 |            0 |            0 |            0 |            0 |            0 |            0 |            0 |            0 |            0 |            0 |            0 |            0 |
dl1.miss_rate                               0.0752 |       0.0752 |       0.0432 |       0.0432 |       0.0761 |       0.0761 |       0.0460 |       0.0460 |       0.0740 |       0.0740 |       0.0444 |       0.0444 |       0.0746 |       0.0746 |       0.0470 |       0.0470 |       0.0728 |       0.0728 |       0.0455 |       0.0455 |       0.0733 |       0.0733 |       0.0478 |       0.0478 |       0.0716 |       0.0716 |       0.0465 |       0.0465 |       0.0722 |       0.0722 |       0.0485 |       0.0485 |       0.0707 |       0.0707 |       0.0473 |       0.0473 |       0.0713 |       0.0713 |       0.0491 |       0.0491 |       0.0700 |       0.0700 |       0.0480 |       0.0480 |
dl1.repl_rate                               0.0742 |       0.0742 |       0.0422 |       0.0422 |       0.0757 |       0.0757 |       0.0456 |       0.0456 |       0.0738 |       0.0738 |       0.0442 |       0.0442 |       0.0745 |       0.0745 |       0.0469 |       0.0469 |       0.0728 |       0.0728 |       0.0455 |       0.0455 |       0.0732 |       0.0732 |       0.0478 |       0.0478 |       0.0716 |       0.0716 |       0.0465 |       0.0465 |       0.0722 |       0.0722 |       0.0485 |       0.0485 |       0.0707 |       0.0707 |       0.0473 |       0.0473 |       0.0713 |       0.0713 |       0.0491 |       0.0491 |       0.0700 |       0.0700 |       0.0480 |       0.0480 |
dl1.wb_rate                                 0.0391 |       0.0391 |       0.0238 |       0.0238 |       0.0392 |       0.0392 |       0.0249 |       0.0249 |       0.0382 |       0.0382 |       0.0240 |       0.0240 |       0.0382 |       0.0382 |       0.0251 |       0.0251 |       0.0372 |       0.0372 |       0.0243 |       0.0243 |       0.0373 |       0.0373 |       0.0253 |       0.0253 |       0.0364 |       0.0364 |       0.0246 |       0.0246 |       0.0366 |       0.0366 |       0.0255 |       0.0255 |       0.0358 |       0.0358 |       0.0249 |       0.0249 |       0.0360 |       0.0360 |       0.0257 |       0.0257 |       0.0353 |       0.0353 |       0.0251 |       0.0251 |
dl1.inv_rate                                0.0000 |       0.0000 |       0.0000 |       0.0000 |       0.0000 |       0.0000 |       0.0000 |       0.0000 |       0.0000 |       0.0000 |       0.0000 |       0.0000 |       0.0000 |       0.0000 |       0.0000 |       0.0000 |       0.0000 |       0.0000 |       0.0000 |       0.0000 |       0.0000 |       0.0000 |       0.0000 |       0.0000 |       0.0000 |       0.0000 |       0.0000 |       0.0000 |       0.0000 |       0.0000 |       0.0000 |       0.0000 |       0.0000 |       0.0000 |       0.0000 |       0.0000 |       0.0000 |       0.0000 |       0.0000 |       0.0000 |       0.0000 |       0.0000 |       0.0000 |       0.0000 |
dl2.accesses                                 31506 |        31506 |        18602 |        18602 |        68412 |        68412 |        42221 |        42221 |       136225 |       136225 |        83176 |        83176 |       296748 |       296748 |       189751 |       189751 |       595643 |       595643 |       378249 |       378249 |      1290893 |      1290893 |       853621 |       853621 |      2590842 |      2590842 |      1705989 |      1705989 |      5591032 |      5591032 |      3804013 |      3804013 |     11218874 |     11218874 |      7608719 |      7608719 |     24079593 |     24079593 |     16788684 |     16788684 |     48302250 |     48302250 |     33575713 |     33575713 |
dl2.hits                                     29606 |        29606 |        16751 |        16751 |        65458 |        65458 |        39330 |        39330 |       131250 |       131250 |        78261 |        78261 |       287659 |       287659 |       180719 |       180719 |       578382 |       578382 |       361044 |       361044 |      1257228 |      1257228 |       820012 |       820012 |      2524429 |      2478798 |      1639632 |      1543257 |      5406761 |      3295223 |      3471495 |      1312777 |      6629324 |      6235817 |      2626340 |      2626277 |     13062953 |     13062634 |      5776152 |      5776152 |     26269815 |     26268899 |     11551595 |     11551595 |
dl2.misses                                    1900 |         1900 |         1851 |         1851 |         2954 |         2954 |         2891 |         2891 |         4975 |         4975 |         4915 |         4915 |         9089 |         9089 |         9032 |         9032 |        17261 |        17261 |        17205 |        17205 |        33665 |        33665 |        33609 |        33609 |        66413 |       112044 |        66357 |       162732 |       184271 |      2295809 |       332518 |      2491236 |      4589550 |      4983057 |      4982379 |      4982442 |     11016640 |     11016959 |     11012532 |     11012532 |     22032435 |     22033351 |     22024118 |     22024118 |
dl2.replacements                               400 |          400 |            0 |            0 |          429 |          429 |            0 |            0 |          403 |          403 |            0 |            0 |          420 |          420 |            0 |            0 |          401 |          401 |            0 |            0 |          420 |          420 |            0 |            0 |          401 |        47575 |            0 |        97196 |        54265 |      2230273 |       201446 |      2425700 |      4458478 |      4917521 |      4851307 |      4916906 |     10885568 |     10951423 |     10881460 |     10946996 |     21901363 |     21967815 |     21893046 |     21958582 |
dl2.writebacks                                 243 |          243 |            0 |            0 |          274 |          274 |            0 |            0 |          248 |          248 |            0 |            0 |          267 |          267 |            0 |            0 |          249 |          249 |            0 |            0 |          268 |          268 |            0 |            0 |          249 |        25890 |            0 |        96954 |        29501 |      1182639 |       201187 |      1278413 |      2449187 |      2580941 |      2557086 |      2589854 |      5641639 |      5707306 |      5703554 |      5736322 |     11455444 |     11499498 |     11472180 |     11504947 |
dl2.invalidations                                0 |            0 |            0 |            0 |            0 |            0 |            0 |            0 |            0 |            0 |            0 |            0 |            0 |            0 |            0 |            0 |            0 |            0 |            0 |            0 |            0 |            0 |            0 |            0 |            0 |            0 |            0 |            0 |            0 |            0 |            0 |            0 |            0 |            0 |            0 |            0 |            0 |            0 |            0 |            0 |            0 |            0 |            0 |            0 |
dl2.miss_rate                               0.0603 |       0.0603 |       0.0995 |       0.0995 |       0.0432 |       0.0432 |       0.0685 |       0.0685 |       0.0365 |       0.0365 |       0.0591 |       0.0591 |       0.0306 |       0.0306 |       0.0476 |       0.0476 |       0.0290 |       0.0290 |       0.0455 |       0.0455 |       0.0261 |       0.0261 |       0.0394 |       0.0394 |       0.0256 |       0.0432 |       0.0389 |       0.0954 |       0.0330 |       0.4106 |       0.0874 |       0.6549 |       0.4091 |       0.4442 |       0.6548 |       0.6548 |       0.4575 |       0.4575 |       0.6559 |       0.6559 |       0.4561 |       0.4562 |       0.6560 |       0.6560 |
dl2.repl_rate                               0.0127 |       0.0127 |       0.0000 |       0.0000 |       0.0063 |       0.0063 |       0.0000 |       0.0000 |       0.0030 |       0.0030 |       0.0000 |       0.0000 |       0.0014 |       0.0014 |       0.0000 |       0.0000 |       0.0007 |       0.0007 |       0.0000 |       0.0000 |       0.0003 |       0.0003 |       0.0000 |       0.0000 |       0.0002 |       0.0184 |       0.0000 |       0.0570 |       0.0097 |       0.3989 |       0.0530 |       0.6377 |       0.3974 |       0.4383 |       0.6376 |       0.6462 |       0.4521 |       0.4548 |       0.6481 |       0.6520 |       0.4534 |       0.4548 |       0.6521 |       0.6540 |
dl2.wb_rate                                 0.0077 |       0.0077 |       0.0000 |       0.0000 |       0.0040 |       0.0040 |       0.0000 |       0.0000 |       0.0018 |       0.0018 |       0.0000 |       0.0000 |       0.0009 |       0.0009 |       0.0000 |       0.0000 |       0.0004 |       0.0004 |       0.0000 |       0.0000 |       0.0002 |       0.0002 |       0.0000 |       0.0000 |       0.0001 |       0.0100 |       0.0000 |       0.0568 |       0.0053 |       0.2115 |       0.0529 |       0.3361 |       0.2183 |       0.2301 |       0.3361 |       0.3404 |       0.2343 |       0.2370 |       0.3397 |       0.3417 |       0.2372 |       0.2381 |       0.3417 |       0.3427 |
dl2.inv_rate                                0.0000 |       0.0000 |       0.0000 |       0.0000 |       0.0000 |       0.0000 |       0.0000 |       0.0000 |       0.0000 |       0.0000 |       0.0000 |       0.0000 |       0.0000 |       0.0000 |       0.0000 |       0.0000 |       0.0000 |       0.0000 |       0.0000 |       0.0000 |       0.0000 |       0.0000 |       0.0000 |       0.0000 |       0.0000 |       0.0000 |       0.0000 |       0.0000 |       0.0000 |       0.0000 |       0.0000 |       0.0000 |       0.0000 |       0.0000 |       0.0000 |       0.0000 |       0.0000 |       0.0000 |       0.0000 |       0.0000 |       0.0000 |       0.0000 |       0.0000 |       0.0000 |
itlb.accesses                               889432 |       889432 |       889432 |       889432 |      1918875 |      1918875 |      1918875 |      1918875 |      4050622 |      4050622 |      4050622 |      4050622 |      8707597 |      8707597 |      8707597 |      8707597 |     18321067 |     18321067 |     18321067 |     18321067 |     39143608 |     39143608 |     39143608 |     39143608 |     81932571 |     81932571 |     81932571 |     81932571 |    173809186 |    173809186 |    173809186 |    173809186 |    362254562 |    362254562 |    362254562 |    362254562 |    764366428 |    764366428 |    764366428 |    764366428 |   1587420142 |   1587420142 |   1587420142 |   1587420142 |
itlb.hits                                   889424 |       889424 |       889424 |       889424 |      1918867 |      1918867 |      1918867 |      1918867 |      4050614 |      4050614 |      4050614 |      4050614 |      8707589 |      8707589 |      8707589 |      8707589 |     18321059 |     18321059 |     18321059 |     18321059 |     39143600 |     39143600 |     39143600 |     39143600 |     81932563 |     81932563 |     81932563 |     81932563 |    173809178 |    173809178 |    173809178 |    173809178 |    362254554 |    362254554 |    362254554 |    362254554 |    764366420 |    764366420 |    764366420 |    764366420 |   1587420134 |   1587420134 |   1587420134 |   1587420134 |
itlb.misses                                      8 |            8 |            8 |            8 |            8 |            8 |            8 |            8 |            8 |            8 |            8 |            8 |            8 |            8 |            8 |            8 |            8 |            8 |            8 |            8 |            8 |            8 |            8 |            8 |            8 |            8 |            8 |            8 |            8 |            8 |            8 |            8 |            8 |            8 |            8 |            8 |            8 |            8 |            8 |            8 |            8 |            8 |            8 |            8 |
itlb.replacements                                0 |            0 |            0 |            0 |            0 |            0 |            0 |            0 |            0 |            0 |            0 |            0 |            0 |            0 |            0 |            0 |            0 |            0 |            0 |            0 |            0 |            0 |            0 |            0 |            0 |            0 |            0 |            0 |            0 |            0 |            0 |            0 |            0 |            0 |            0 |            0 |            0 |            0 |            0 |            0 |            0 |            0 |            0 |            0 |
itlb.writebacks                                  0 |            0 |            0 |            0 |            0 |            0 |            0 |            0 |            0 |            0 |            0 |            0 |            0 |            0 |            0 |            0 |            0 |            0 |            0 |            0 |            0 |            0 |            0 |            0 |            0 |            0 |            0 |            0 |            0 |            0 |            0 |            0 |            0 |            0 |            0 |            0 |            0 |            0 |            0 |            0 |            0 |            0 |            0 |            0 |
itlb.invalidations                               0 |            0 |            0 |            0 |            0 |            0 |            0 |            0 |            0 |            0 |            0 |            0 |            0 |            0 |            0 |            0 |            0 |            0 |            0 |            0 |            0 |            0 |            0 |            0 |            0 |            0 |            0 |            0 |            0 |            0 |            0 |            0 |            0 |            0 |            0 |            0 |            0 |            0 |            0 |            0 |            0 |            0 |            0 |            0 |
itlb.miss_rate                              0.0000 |       0.0000 |       0.0000 |       0.0000 |       0.0000 |       0.0000 |       0.0000 |       0.0000 |       0.0000 |       0.0000 |       0.0000 |       0.0000 |       0.0000 |       0.0000 |       0.0000 |       0.0000 |       0.0000 |       0.0000 |       0.0000 |       0.0000 |       0.0000 |       0.0000 |       0.0000 |       0.0000 |       0.0000 |       0.0000 |       0.0000 |       0.0000 |       0.0000 |       0.0000 |       0.0000 |       0.0000 |       0.0000 |       0.0000 |       0.0000 |       0.0000 |       0.0000 |       0.0000 |       0.0000 |       0.0000 |       0.0000 |       0.0000 |       0.0000 |       0.0000 |
itlb.repl_rate                              0.0000 |       0.0000 |       0.0000 |       0.0000 |       0.0000 |       0.0000 |       0.0000 |       0.0000 |       0.0000 |       0.0000 |       0.0000 |       0.0000 |       0.0000 |       0.0000 |       0.0000 |       0.0000 |       0.0000 |       0.0000 |       0.0000 |       0.0000 |       0.0000 |       0.0000 |       0.0000 |       0.0000 |       0.0000 |       0.0000 |       0.0000 |       0.0000 |       0.0000 |       0.0000 |       0.0000 |       0.0000 |       0.0000 |       0.0000 |       0.0000 |       0.0000 |       0.0000 |       0.0000 |       0.0000 |       0.0000 |       0.0000 |       0.0000 |       0.0000 |       0.0000 |
itlb.wb_rate                                0.0000 |       0.0000 |       0.0000 |       0.0000 |       0.0000 |       0.0000 |       0.0000 |       0.0000 |       0.0000 |       0.0000 |       0.0000 |       0.0000 |       0.0000 |       0.0000 |       0.0000 |       0.0000 |       0.0000 |       0.0000 |       0.0000 |       0.0000 |       0.0000 |       0.0000 |       0.0000 |       0.0000 |       0.0000 |       0.0000 |       0.0000 |       0.0000 |       0.0000 |       0.0000 |       0.0000 |       0.0000 |       0.0000 |       0.0000 |       0.0000 |       0.0000 |       0.0000 |       0.0000 |       0.0000 |       0.0000 |       0.0000 |       0.0000 |       0.0000 |       0.0000 |
itlb.inv_rate                               0.0000 |       0.0000 |       0.0000 |       0.0000 |       0.0000 |       0.0000 |       0.0000 |       0.0000 |       0.0000 |       0.0000 |       0.0000 |       0.0000 |       0.0000 |       0.0000 |       0.0000 |       0.0000 |       0.0000 |       0.0000 |       0.0000 |       0.0000 |       0.0000 |       0.0000 |       0.0000 |       0.0000 |       0.0000 |       0.0000 |       0.0000 |       0.0000 |       0.0000 |       0.0000 |       0.0000 |       0.0000 |       0.0000 |       0.0000 |       0.0000 |       0.0000 |       0.0000 |       0.0000 |       0.0000 |       0.0000 |       0.0000 |       0.0000 |       0.0000 |       0.0000 |
dtlb.accesses                               271659 |       271659 |       271659 |       271659 |       588720 |       588720 |       588720 |       588720 |      1210439 |      1210439 |      1210439 |      1210439 |      2625998 |      2625998 |      2625998 |      2625998 |      5408815 |      5408815 |      5408815 |      5408815 |     11667036 |     11667036 |     11667036 |     11667036 |     23979399 |     23979399 |     23979399 |     23979399 |     51357774 |     51357774 |     51357774 |     51357774 |    105328195 |    105328195 |    105328195 |    105328195 |    224279124 |    224279124 |    224279124 |    224279124 |    459023295 |    459023295 |    459023295 |    459023295 |
dtlb.hits                                   271645 |       271645 |       271645 |       271645 |       588698 |       588698 |       588698 |       588698 |      1210401 |      1210401 |      1210401 |      1210401 |      2625928 |      2625928 |      2625928 |      2625928 |      5408617 |      5408617 |      5408617 |      5408617 |     11662795 |     11662795 |     11662795 |     11662795 |     23970665 |     23970665 |     23970665 |     23970665 |     51338277 |     51338277 |     51338277 |     51338277 |    105289223 |    105289223 |    105289223 |    105289223 |    224193008 |    224193008 |    224193008 |    224193008 |    458851089 |    458851089 |    458851089 |    458851089 |
dtlb.misses                                     14 |           14 |           14 |           14 |           22 |           22 |           22 |           22 |           38 |           38 |           38 |           38 |           70 |           70 |           70 |           70 |          198 |          198 |          198 |          198 |         4241 |         4241 |         4241 |         4241 |         8734 |         8734 |         8734 |         8734 |        19497 |        19497 |        19497 |        19497 |        38972 |        38972 |        38972 |        38972 |        86116 |        86116 |        86116 |        86116 |       172206 |       172206 |       172206 |       172206 |
dtlb.replacements                                0 |            0 |            0 |            0 |            0 |            0 |            0 |            0 |            0 |            0 |            0 |            0 |            0 |            0 |            0 |            0 |           70 |           70 |           70 |           70 |         4113 |         4113 |         4113 |         4113 |         8606 |         8606 |         8606 |         8606 |        19369 |        19369 |        19369 |        19369 |        38844 |        38844 |        38844 |        38844 |        85988 |        85988 |        85988 |        85988 |       172078 |       172078 |       172078 |       172078 |
dtlb.writebacks                                  0 |            0 |            0 |            0 |            0 |            0 |            0 |            0 |            0 |            0 |            0 |            0 |            0 |            0 |            0 |            0 |           41 |           41 |           41 |           41 |         2149 |         2149 |         2149 |         2149 |         4561 |         4561 |         4561 |         4561 |        10202 |        10202 |        10202 |        10202 |        20455 |        20455 |        20455 |        20455 |        45060 |        45060 |        45060 |        45060 |        90169 |        90169 |        90169 |        90169 |
dtlb.invalidations                               0 |            0 |            0 |            0 |            0 |            0 |            0 |            0 |            0 |            0 |            0 |            0 |            0 |            0 |            0 |            0 |            0 |            0 |            0 |            0 |            0 |            0 |            0 |            0 |            0 |            0 |            0 |            0 |            0 |            0 |            0 |            0 |            0 |            0 |            0 |            0 |            0 |            0 |            0 |            0 |            0 |            0 |            0 |            0 |
dtlb.miss_rate                              0.0001 |       0.0001 |       0.0001 |       0.0001 |       0.0000 |       0.0000 |       0.0000 |       0.0000 |       0.0000 |       0.0000 |       0.0000 |       0.0000 |       0.0000 |       0.0000 |       0.0000 |       0.0000 |       0.0000 |       0.0000 |       0.0000 |       0.0000 |       0.0004 |       0.0004 |       0.0004 |       0.0004 |       0.0004 |       0.0004 |       0.0004 |       0.0004 |       0.0004 |       0.0004 |       0.0004 |       0.0004 |       0.0004 |       0.0004 |       0.0004 |       0.0004 |       0.0004 |       0.0004 |       0.0004 |       0.0004 |       0.0004 |       0.0004 |       0.0004 |       0.0004 |
dtlb.repl_rate                              0.0000 |       0.0000 |       0.0000 |       0.0000 |       0.0000 |       0.0000 |       0.0000 |       0.0000 |       0.0000 |       0.0000 |       0.0000 |       0.0000 |       0.0000 |       0.0000 |       0.0000 |       0.0000 |       0.0000 |       0.0000 |       0.0000 |       0.0000 |       0.0004 |       0.0004 |       0.0004 |       0.0004 |       0.0004 |       0.0004 |       0.0004 |       0.0004 |       0.0004 |       0.0004 |       0.0004 |       0.0004 |       0.0004 |       0.0004 |       0.0004 |       0.0004 |       0.0004 |       0.0004 |       0.0004 |       0.0004 |       0.0004 |       0.0004 |       0.0004 |       0.0004 |
dtlb.wb_rate                                0.0000 |       0.0000 |       0.0000 |       0.0000 |       0.0000 |       0.0000 |       0.0000 |       0.0000 |       0.0000 |       0.0000 |       0.0000 |       0.0000 |       0.0000 |       0.0000 |       0.0000 |       0.0000 |       0.0000 |       0.0000 |       0.0000 |       0.0000 |       0.0002 |       0.0002 |       0.0002 |       0.0002 |       0.0002 |       0.0002 |       0.0002 |       0.0002 |       0.0002 |       0.0002 |       0.0002 |       0.0002 |       0.0002 |       0.0002 |       0.0002 |       0.0002 |       0.0002 |       0.0002 |       0.0002 |       0.0002 |       0.0002 |       0.0002 |       0.0002 |       0.0002 |
dtlb.inv_rate                               0.0000 |       0.0000 |       0.0000 |       0.0000 |       0.0000 |       0.0000 |       0.0000 |       0.0000 |       0.0000 |       0.0000 |       0.0000 |       0.0000 |       0.0000 |       0.0000 |       0.0000 |       0.0000 |       0.0000 |       0.0000 |       0.0000 |       0.0000 |       0.0000 |       0.0000 |       0.0000 |       0.0000 |       0.0000 |       0.0000 |       0.0000 |       0.0000 |       0.0000 |       0.0000 |       0.0000 |       0.0000 |       0.0000 |       0.0000 |       0.0000 |       0.0000 |       0.0000 |       0.0000 |       0.0000 |       0.0000 |       0.0000 |       0.0000 |       0.0000 |       0.0000 |
ld_text_base                            0x00400000 |   0x00400000 |   0x00400000 |   0x00400000 |   0x00400000 |   0x00400000 |   0x00400000 |   0x00400000 |   0x00400000 |   0x00400000 |   0x00400000 |   0x00400000 |   0x00400000 |   0x00400000 |   0x00400000 |   0x00400000 |   0x00400000 |   0x00400000 |   0x00400000 |   0x00400000 |   0x00400000 |   0x00400000 |   0x00400000 |   0x00400000 |   0x00400000 |   0x00400000 |   0x00400000 |   0x00400000 |   0x00400000 |   0x00400000 |   0x00400000 |   0x00400000 |   0x00400000 |   0x00400000 |   0x00400000 |   0x00400000 |   0x00400000 |   0x00400000 |   0x00400000 |   0x00400000 |   0x00400000 |   0x00400000 |   0x00400000 |   0x00400000 |
ld_text_size                                 29744 |        29744 |        29744 |        29744 |        29776 |        29776 |        29776 |        29776 |        29792 |        29792 |        29792 |        29792 |        29824 |        29824 |        29824 |        29824 |        29824 |        29824 |        29824 |        29824 |        29824 |        29824 |        29824 |        29824 |        29824 |        29824 |        29824 |        29824 |        29824 |        29824 |        29824 |        29824 |        29824 |        29824 |        29824 |        29824 |        29824 |        29824 |        29824 |        29824 |        29824 |        29824 |        29824 |        29824 |
ld_data_base                            0x10000000 |   0x10000000 |   0x10000000 |   0x10000000 |   0x10000000 |   0x10000000 |   0x10000000 |   0x10000000 |   0x10000000 |   0x10000000 |   0x10000000 |   0x10000000 |   0x10000000 |   0x10000000 |   0x10000000 |   0x10000000 |   0x10000000 |   0x10000000 |   0x10000000 |   0x10000000 |   0x10000000 |   0x10000000 |   0x10000000 |   0x10000000 |   0x10000000 |   0x10000000 |   0x10000000 |   0x10000000 |   0x10000000 |   0x10000000 |   0x10000000 |   0x10000000 |   0x10000000 |   0x10000000 |   0x10000000 |   0x10000000 |   0x10000000 |   0x10000000 |   0x10000000 |   0x10000000 |   0x10000000 |   0x10000000 |   0x10000000 |   0x10000000 |
ld_data_size                                  4096 |         4096 |         4096 |         4096 |         4096 |         4096 |         4096 |         4096 |         4096 |         4096 |         4096 |         4096 |         4096 |         4096 |         4096 |         4096 |         4096 |         4096 |         4096 |         4096 |         4096 |         4096 |         4096 |         4096 |         4096 |         4096 |         4096 |         4096 |         4096 |         4096 |         4096 |         4096 |         4096 |         4096 |         4096 |         4096 |         4096 |         4096 |         4096 |         4096 |         4096 |         4096 |         4096 |         4096 |
ld_stack_base                           0x7fffc000 |   0x7fffc000 |   0x7fffc000 |   0x7fffc000 |   0x7fffc000 |   0x7fffc000 |   0x7fffc000 |   0x7fffc000 |   0x7fffc000 |   0x7fffc000 |   0x7fffc000 |   0x7fffc000 |   0x7fffc000 |   0x7fffc000 |   0x7fffc000 |   0x7fffc000 |   0x7fffc000 |   0x7fffc000 |   0x7fffc000 |   0x7fffc000 |   0x7fffc000 |   0x7fffc000 |   0x7fffc000 |   0x7fffc000 |   0x7fffc000 |   0x7fffc000 |   0x7fffc000 |   0x7fffc000 |   0x7fffc000 |   0x7fffc000 |   0x7fffc000 |   0x7fffc000 |   0x7fffc000 |   0x7fffc000 |   0x7fffc000 |   0x7fffc000 |   0x7fffc000 |   0x7fffc000 |   0x7fffc000 |   0x7fffc000 |   0x7fffc000 |   0x7fffc000 |   0x7fffc000 |   0x7fffc000 |
ld_stack_size                                16384 |        16384 |        16384 |        16384 |        16384 |        16384 |        16384 |        16384 |        16384 |        16384 |        16384 |        16384 |        16384 |        16384 |        16384 |        16384 |        16384 |        16384 |        16384 |        16384 |        16384 |        16384 |        16384 |        16384 |        16384 |        16384 |        16384 |        16384 |        16384 |        16384 |        16384 |        16384 |        16384 |        16384 |        16384 |        16384 |        16384 |        16384 |        16384 |        16384 |        16384 |        16384 |        16384 |        16384 |
ld_prog_entry                           0x00400140 |   0x00400140 |   0x00400140 |   0x00400140 |   0x00400140 |   0x00400140 |   0x00400140 |   0x00400140 |   0x00400140 |   0x00400140 |   0x00400140 |   0x00400140 |   0x00400140 |   0x00400140 |   0x00400140 |   0x00400140 |   0x00400140 |   0x00400140 |   0x00400140 |   0x00400140 |   0x00400140 |   0x00400140 |   0x00400140 |   0x00400140 |   0x00400140 |   0x00400140 |   0x00400140 |   0x00400140 |   0x00400140 |   0x00400140 |   0x00400140 |   0x00400140 |   0x00400140 |   0x00400140 |   0x00400140 |   0x00400140 |   0x00400140 |   0x00400140 |   0x00400140 |   0x00400140 |   0x00400140 |   0x00400140 |   0x00400140 |   0x00400140 |
ld_environ_base                         0x7fff8000 |   0x7fff8000 |   0x7fff8000 |   0x7fff8000 |   0x7fff8000 |   0x7fff8000 |   0x7fff8000 |   0x7fff8000 |   0x7fff8000 |   0x7fff8000 |   0x7fff8000 |   0x7fff8000 |   0x7fff8000 |   0x7fff8000 |   0x7fff8000 |   0x7fff8000 |   0x7fff8000 |   0x7fff8000 |   0x7fff8000 |   0x7fff8000 |   0x7fff8000 |   0x7fff8000 |   0x7fff8000 |   0x7fff8000 |   0x7fff8000 |   0x7fff8000 |   0x7fff8000 |   0x7fff8000 |   0x7fff8000 |   0x7fff8000 |   0x7fff8000 |   0x7fff8000 |   0x7fff8000 |   0x7fff8000 |   0x7fff8000 |   0x7fff8000 |   0x7fff8000 |   0x7fff8000 |   0x7fff8000 |   0x7fff8000 |   0x7fff8000 |   0x7fff8000 |   0x7fff8000 |   0x7fff8000 |
ld_target_big_endian                             0 |            0 |            0 |            0 |            0 |            0 |            0 |            0 |            0 |            0 |            0 |            0 |            0 |            0 |            0 |            0 |            0 |            0 |            0 |            0 |            0 |            0 |            0 |            0 |            0 |            0 |            0 |            0 |            0 |            0 |            0 |            0 |            0 |            0 |            0 |            0 |            0 |            0 |            0 |            0 |            0 |            0 |            0 |            0 |
mem.page_count                                  22 |           22 |           22 |           22 |           30 |           30 |           30 |           30 |           46 |           46 |           46 |           46 |           78 |           78 |           78 |           78 |          142 |          142 |          142 |          142 |          270 |          270 |          270 |          270 |          526 |          526 |          526 |          526 |         1038 |         1038 |         1038 |         1038 |         2068 |         2068 |         2068 |         2068 |         4122 |         4122 |         4122 |         4122 |         8230 |         8230 |         8230 |         8230 |
mem.page_mem                                   88k |          88k |          88k |          88k |         120k |         120k |         120k |         120k |         184k |         184k |         184k |         184k |         312k |         312k |         312k |         312k |         568k |         568k |         568k |         568k |        1080k |        1080k |        1080k |        1080k |        2104k |        2104k |        2104k |        2104k |        4152k |        4152k |        4152k |        4152k |        8272k |        8272k |        8272k |        8272k |       16488k |       16488k |       16488k |       16488k |       32920k |       32920k |       32920k |       32920k |
mem.ptab_misses                                 22 |           22 |           22 |           22 |           30 |           30 |           30 |           30 |           46 |           46 |           46 |           46 |           78 |           78 |           78 |           78 |          142 |          142 |          142 |          142 |          270 |          270 |          270 |          270 |          526 |          526 |          526 |          526 |         1038 |         1038 |         1038 |         1038 |       104901 |       104901 |       104901 |       104901 |       111606 |       111606 |       111606 |       111606 |       122576 |       122576 |       122576 |       122576 |
mem.ptab_accesses                          4284724 |      4284724 |      4284724 |      4284724 |      9036810 |      9036810 |      9036810 |      9036810 |     18807332 |     18807332 |     18807332 |     18807332 |     40266542 |     40266542 |     40266542 |     40266542 |     84286056 |     84286056 |     84286056 |     84286056 |    180092662 |    180092662 |    180092662 |    180092662 |    375873240 |    375873240 |    375873240 |    375873240 |    798136450 |    798136450 |    798136450 |    798136450 |   1659858796 |   1659858796 |   1659858796 |   1659858796 |   3506208118 |   3506208118 |   3506208118 |   3506208118 |   7267911316 |   7267911316 |   7267911316 |   7267911316 |
mem.ptab_miss_rate                          0.0000 |       0.0000 |       0.0000 |       0.0000 |       0.0000 |       0.0000 |       0.0000 |       0.0000 |       0.0000 |       0.0000 |       0.0000 |       0.0000 |       0.0000 |       0.0000 |       0.0000 |       0.0000 |       0.0000 |       0.0000 |       0.0000 |       0.0000 |       0.0000 |       0.0000 |       0.0000 |       0.0000 |       0.0000 |       0.0000 |       0.0000 |       0.0000 |       0.0000 |       0.0000 |       0.0000 |       0.0000 |       0.0001 |       0.0001 |       0.0001 |       0.0001 |       0.0000 |       0.0000 |       0.0000 |       0.0000 |       0.0000 |       0.0000 |       0.0000 |       0.0000 |
-------------------------------------------------------------------------------------------------
sim-bpred                                     4096 |         4096 |         4096 |         4096 |         4096 |         4096 |         4096 |         8192 |         8192 |         8192 |         8192 |         8192 |         8192 |         8192 |        16384 |        16384 |        16384 |        16384 |        16384 |        16384 |        16384 |        32768 |        32768 |        32768 |        32768 |        32768 |        32768 |        32768 |        65536 |        65536 |        65536 |        65536 |        65536 |        65536 |        65536 |       131072 |       131072 |       131072 |       131072 |       131072 |       131072 |       131072 |       262144 |       262144 |       262144 |       262144 |       262144 |       262144 |       262144 |       524288 |       524288 |       524288 |       524288 |       524288 |       524288 |       524288 |      1048576 |      1048576 |      1048576 |      1048576 |      1048576 |      1048576 |      1048576 |      2097152 |      2097152 |      2097152 |      2097152 |      2097152 |      2097152 |      2097152 |      4194304 |      4194304 |      4194304 |      4194304 |      4194304 |      4194304 |      4194304 |
-bpred bimod -bpred:bimod 512
-bpred bimod -bpred:bimod 1024
-bpred bimod -bpred:bimod 2048
-bpred 2lev -bpred:2lev 1 512 10 1
-bpred 2lev -bpred:2lev 1 1024 10 1
-bpred 2lev -bpred:2lev 1 2048 10 1
-bpred 2lev -bpred:2lev 1 4096 10 1
-------------------------------------------------------------------------------------------------
sim_num_insn                                889432 |       889432 |       889432 |       889432 |       889432 |       889432 |       889432 |      1918875 |      1918875 |      1918875 |      1918875 |      1918875 |      1918875 |      1918875 |      4050622 |      4050622 |      4050622 |      4050622 |      4050622 |      4050622 |      4050622 |      8707597 |      8707597 |      8707597 |      8707597 |      8707597 |      8707597 |      8707597 |     18321067 |     18321067 |     18321067 |     18321067 |     18321067 |     18321067 |     18321067 |     39143608 |     39143608 |     39143608 |     39143608 |     39143608 |     39143608 |     39143608 |     81932571 |     81932571 |     81932571 |     81932571 |     81932571 |     81932571 |     81932571 |    173809186 |    173809186 |    173809186 |    173809186 |    173809186 |    173809186 |    173809186 |    362254562 |    362254562 |    362254562 |    362254562 |    362254562 |    362254562 |    362254562 |    764366428 |    764366428 |    764366428 |    764366428 |    764366428 |    764366428 |    764366428 |   1587420142 |   1587420142 |   1587420142 |   1587420142 |   1587420142 |   1587420142 |   1587420142 |
sim_num_refs                                271589 |       271589 |       271589 |       271589 |       271589 |       271589 |       271589 |       588650 |       588650 |       588650 |       588650 |       588650 |       588650 |       588650 |      1210369 |      1210369 |      1210369 |      1210369 |      1210369 |      1210369 |      1210369 |      2625928 |      2625928 |      2625928 |      2625928 |      2625928 |      2625928 |      2625928 |      5408745 |      5408745 |      5408745 |      5408745 |      5408745 |      5408745 |      5408745 |     11666966 |     11666966 |     11666966 |     11666966 |     11666966 |     11666966 |     11666966 |     23979329 |     23979329 |     23979329 |     23979329 |     23979329 |     23979329 |     23979329 |     51357704 |     51357704 |     51357704 |     51357704 |     51357704 |     51357704 |     51357704 |    105328125 |    105328125 |    105328125 |    105328125 |    105328125 |    105328125 |    105328125 |    224279054 |    224279054 |    224279054 |    224279054 |    224279054 |    224279054 |    224279054 |    459023225 |    459023225 |    459023225 |    459023225 |    459023225 |    459023225 |    459023225 |
sim_elapsed_time                                 1 |            1 |            1 |            1 |            1 |            1 |            1 |            1 |            1 |            1 |            1 |            1 |            1 |            1 |            1 |            1 |            1 |            1 |            1 |            1 |            1 |            2 |            2 |            2 |            2 |            2 |            2 |            2 |            4 |            4 |            4 |            4 |            5 |            4 |            4 |            9 |            9 |            8 |            9 |            9 |            9 |            9 |           18 |           19 |           18 |           19 |           19 |           18 |           19 |           39 |           39 |           39 |           40 |           39 |           40 |           39 |           81 |           81 |           81 |           83 |           82 |           82 |           82 |          171 |          170 |          171 |          174 |          173 |          174 |          173 |          352 |          353 |          355 |          359 |          359 |          357 |          359 |
sim_inst_rate                          889432.0000 |  889432.0000 |  889432.0000 |  889432.0000 |  889432.0000 |  889432.0000 |  889432.0000 | 1918875.0000 | 1918875.0000 | 1918875.0000 | 1918875.0000 | 1918875.0000 | 1918875.0000 | 1918875.0000 | 4050622.0000 | 4050622.0000 | 4050622.0000 | 4050622.0000 | 4050622.0000 | 4050622.0000 | 4050622.0000 | 4353798.5000 | 4353798.5000 | 4353798.5000 | 4353798.5000 | 4353798.5000 | 4353798.5000 | 4353798.5000 | 4580266.7500 | 4580266.7500 | 4580266.7500 | 4580266.7500 | 3664213.4000 | 4580266.7500 | 4580266.7500 | 4349289.7778 | 4349289.7778 | 4892951.0000 | 4349289.7778 | 4349289.7778 | 4349289.7778 | 4349289.7778 | 4551809.5000 | 4312240.5789 | 4551809.5000 | 4312240.5789 | 4312240.5789 | 4551809.5000 | 4312240.5789 | 4456645.7949 | 4456645.7949 | 4456645.7949 | 4345229.6500 | 4456645.7949 | 4345229.6500 | 4456645.7949 | 4472278.5432 | 4472278.5432 | 4472278.5432 | 4364512.7952 | 4417738.5610 | 4417738.5610 | 4417738.5610 | 4469979.1111 | 4496273.1059 | 4469979.1111 | 4392910.5057 | 4418303.0520 | 4392910.5057 | 4418303.0520 | 4509716.3125 | 4496940.9122 | 4471606.0338 | 4421783.1253 | 4421783.1253 | 4446555.0196 | 4421783.1253 |
sim_num_branches                            125429 |       125429 |       125429 |       125429 |       125429 |       125429 |       125429 |       265775 |       265775 |       265775 |       265775 |       265775 |       265775 |       265775 |       559560 |       559560 |       559560 |       559560 |       559560 |       559560 |       559560 |      1186221 |      1186221 |      1186221 |      1186221 |      1186221 |      1186221 |      1186221 |      2493440 |      2493440 |      2493440 |      2493440 |      2493440 |      2493440 |      2493440 |      5266722 |      5266722 |      5266722 |      5266722 |      5266722 |      5266722 |      5266722 |     11022007 |     11022007 |     11022007 |     11022007 |     11022007 |     11022007 |     11022007 |     23156865 |     23156865 |     23156865 |     23156865 |     23156865 |     23156865 |     23156865 |     48276157 |     48276157 |     48276157 |     48276157 |     48276157 |     48276157 |     48276157 |    101017606 |    101017606 |    101017606 |    101017606 |    101017606 |    101017606 |    101017606 |    209909182 |    209909182 |    209909182 |    209909182 |    209909182 |    209909182 |    209909182 |
sim_IPB                                     7.0911 |       7.0911 |       7.0911 |       7.0911 |       7.0911 |       7.0911 |       7.0911 |       7.2199 |       7.2199 |       7.2199 |       7.2199 |       7.2199 |       7.2199 |       7.2199 |       7.2389 |       7.2389 |       7.2389 |       7.2389 |       7.2389 |       7.2389 |       7.2389 |       7.3406 |       7.3406 |       7.3406 |       7.3406 |       7.3406 |       7.3406 |       7.3406 |       7.3477 |       7.3477 |       7.3477 |       7.3477 |       7.3477 |       7.3477 |       7.3477 |       7.4323 |       7.4323 |       7.4323 |       7.4323 |       7.4323 |       7.4323 |       7.4323 |       7.4335 |       7.4335 |       7.4335 |       7.4335 |       7.4335 |       7.4335 |       7.4335 |       7.5057 |       7.5057 |       7.5057 |       7.5057 |       7.5057 |       7.5057 |       7.5057 |       7.5038 |       7.5038 |       7.5038 |       7.5038 |       7.5038 |       7.5038 |       7.5038 |       7.5667 |       7.5667 |       7.5667 |       7.5667 |       7.5667 |       7.5667 |       7.5667 |       7.5624 |       7.5624 |       7.5624 |       7.5624 |       7.5624 |       7.5624 |       7.5624 |
bpred_bimod.lookups                         125429 |       125429 |       125429 |xxxxxxxxxxxxx |xxxxxxxxxxxxx |xxxxxxxxxxxxx |xxxxxxxxxxxxx |       265775 |       265775 |       265775 |xxxxxxxxxxxxx |xxxxxxxxxxxxx |xxxxxxxxxxxxx |xxxxxxxxxxxxx |       559560 |       559560 |       559560 |xxxxxxxxxxxxx |xxxxxxxxxxxxx |xxxxxxxxxxxxx |xxxxxxxxxxxxx |      1186221 |      1186221 |      1186221 |xxxxxxxxxxxxx |xxxxxxxxxxxxx |xxxxxxxxxxxxx |xxxxxxxxxxxxx |      2493440 |      2493440 |      2493440 |xxxxxxxxxxxxx |xxxxxxxxxxxxx |xxxxxxxxxxxxx |xxxxxxxxxxxxx |      5266722 |      5266722 |      5266722 |xxxxxxxxxxxxx |xxxxxxxxxxxxx |xxxxxxxxxxxxx |xxxxxxxxxxxxx |     11022007 |     11022007 |     11022007 |xxxxxxxxxxxxx |xxxxxxxxxxxxx |xxxxxxxxxxxxx |xxxxxxxxxxxxx |     23156865 |     23156865 |     23156865 |xxxxxxxxxxxxx |xxxxxxxxxxxxx |xxxxxxxxxxxxx |xxxxxxxxxxxxx |     48276157 |     48276157 |     48276157 |xxxxxxxxxxxxx |xxxxxxxxxxxxx |xxxxxxxxxxxxx |xxxxxxxxxxxxx |    101017606 |    101017606 |    101017606 |xxxxxxxxxxxxx |xxxxxxxxxxxxx |xxxxxxxxxxxxx |xxxxxxxxxxxxx |    209909182 |    209909182 |    209909182 |
bpred_bimod.updates                         125429 |       125429 |       125429 |xxxxxxxxxxxxx |xxxxxxxxxxxxx |xxxxxxxxxxxxx |xxxxxxxxxxxxx |       265775 |       265775 |       265775 |xxxxxxxxxxxxx |xxxxxxxxxxxxx |xxxxxxxxxxxxx |xxxxxxxxxxxxx |       559560 |       559560 |       559560 |xxxxxxxxxxxxx |xxxxxxxxxxxxx |xxxxxxxxxxxxx |xxxxxxxxxxxxx |      1186221 |      1186221 |      1186221 |xxxxxxxxxxxxx |xxxxxxxxxxxxx |xxxxxxxxxxxxx |xxxxxxxxxxxxx |      2493440 |      2493440 |      2493440 |xxxxxxxxxxxxx |xxxxxxxxxxxxx |xxxxxxxxxxxxx |xxxxxxxxxxxxx |      5266722 |      5266722 |      5266722 |xxxxxxxxxxxxx |xxxxxxxxxxxxx |xxxxxxxxxxxxx |xxxxxxxxxxxxx |     11022007 |     11022007 |     11022007 |xxxxxxxxxxxxx |xxxxxxxxxxxxx |xxxxxxxxxxxxx |xxxxxxxxxxxxx |     23156865 |     23156865 |     23156865 |xxxxxxxxxxxxx |xxxxxxxxxxxxx |xxxxxxxxxxxxx |xxxxxxxxxxxxx |     48276157 |     48276157 |     48276157 |xxxxxxxxxxxxx |xxxxxxxxxxxxx |xxxxxxxxxxxxx |xxxxxxxxxxxxx |    101017606 |    101017606 |    101017606 |xxxxxxxxxxxxx |xxxxxxxxxxxxx |xxxxxxxxxxxxx |xxxxxxxxxxxxx |    209909182 |    209909182 |    209909182 |
bpred_bimod.addr_hits                        99958 |        99957 |        99960 |xxxxxxxxxxxxx |xxxxxxxxxxxxx |xxxxxxxxxxxxx |xxxxxxxxxxxxx |       210966 |       210964 |       210967 |xxxxxxxxxxxxx |xxxxxxxxxxxxx |xxxxxxxxxxxxx |xxxxxxxxxxxxx |       441665 |       441664 |       441667 |xxxxxxxxxxxxx |xxxxxxxxxxxxx |xxxxxxxxxxxxx |xxxxxxxxxxxxx |       934459 |       934460 |       934461 |xxxxxxxxxxxxx |xxxxxxxxxxxxx |xxxxxxxxxxxxx |xxxxxxxxxxxxx |      1957427 |      1957429 |      1957431 |xxxxxxxxxxxxx |xxxxxxxxxxxxx |xxxxxxxxxxxxx |xxxxxxxxxxxxx |      4127580 |      4127581 |      4127582 |xxxxxxxxxxxxx |xxxxxxxxxxxxx |xxxxxxxxxxxxx |xxxxxxxxxxxxx |      8613260 |      8613261 |      8613262 |xxxxxxxxxxxxx |xxxxxxxxxxxxx |xxxxxxxxxxxxx |xxxxxxxxxxxxx |     18075803 |     18075804 |     18075805 |xxxxxxxxxxxxx |xxxxxxxxxxxxx |xxxxxxxxxxxxx |xxxxxxxxxxxxx |     37589558 |     37589561 |     37589562 |xxxxxxxxxxxxx |xxxxxxxxxxxxx |xxxxxxxxxxxxx |xxxxxxxxxxxxx |     78591856 |     78591857 |     78591858 |xxxxxxxxxxxxx |xxxxxxxxxxxxx |xxxxxxxxxxxxx |xxxxxxxxxxxxx |    162968579 |    162968581 |    162968582 |
bpred_bimod.dir_hits                        100081 |       100078 |       100081 |xxxxxxxxxxxxx |xxxxxxxxxxxxx |xxxxxxxxxxxxx |xxxxxxxxxxxxx |       211100 |       211095 |       211098 |xxxxxxxxxxxxx |xxxxxxxxxxxxx |xxxxxxxxxxxxx |xxxxxxxxxxxxx |       441794 |       441791 |       441793 |xxxxxxxxxxxxx |xxxxxxxxxxxxx |xxxxxxxxxxxxx |xxxxxxxxxxxxx |       934595 |       934594 |       934593 |xxxxxxxxxxxxx |xxxxxxxxxxxxx |xxxxxxxxxxxxx |xxxxxxxxxxxxx |      1957558 |      1957557 |      1957558 |xxxxxxxxxxxxx |xxxxxxxxxxxxx |xxxxxxxxxxxxx |xxxxxxxxxxxxx |      4127718 |      4127715 |      4127714 |xxxxxxxxxxxxx |xxxxxxxxxxxxx |xxxxxxxxxxxxx |xxxxxxxxxxxxx |      8613391 |      8613388 |      8613388 |xxxxxxxxxxxxx |xxxxxxxxxxxxx |xxxxxxxxxxxxx |xxxxxxxxxxxxx |     18075940 |     18075938 |     18075937 |xxxxxxxxxxxxx |xxxxxxxxxxxxx |xxxxxxxxxxxxx |xxxxxxxxxxxxx |     37589701 |     37589700 |     37589699 |xxxxxxxxxxxxx |xxxxxxxxxxxxx |xxxxxxxxxxxxx |xxxxxxxxxxxxx |     78591999 |     78591997 |     78591996 |xxxxxxxxxxxxx |xxxxxxxxxxxxx |xxxxxxxxxxxxx |xxxxxxxxxxxxx |    162968721 |    162968720 |    162968719 |
bpred_bimod.misses                           25348 |        25351 |        25348 |xxxxxxxxxxxxx |xxxxxxxxxxxxx |xxxxxxxxxxxxx |xxxxxxxxxxxxx |        54675 |        54680 |        54677 |xxxxxxxxxxxxx |xxxxxxxxxxxxx |xxxxxxxxxxxxx |xxxxxxxxxxxxx |       117766 |       117769 |       117767 |xxxxxxxxxxxxx |xxxxxxxxxxxxx |xxxxxxxxxxxxx |xxxxxxxxxxxxx |       251626 |       251627 |       251628 |xxxxxxxxxxxxx |xxxxxxxxxxxxx |xxxxxxxxxxxxx |xxxxxxxxxxxxx |       535882 |       535883 |       535882 |xxxxxxxxxxxxx |xxxxxxxxxxxxx |xxxxxxxxxxxxx |xxxxxxxxxxxxx |      1139004 |      1139007 |      1139008 |xxxxxxxxxxxxx |xxxxxxxxxxxxx |xxxxxxxxxxxxx |xxxxxxxxxxxxx |      2408616 |      2408619 |      2408619 |xxxxxxxxxxxxx |xxxxxxxxxxxxx |xxxxxxxxxxxxx |xxxxxxxxxxxxx |      5080925 |      5080927 |      5080928 |xxxxxxxxxxxxx |xxxxxxxxxxxxx |xxxxxxxxxxxxx |xxxxxxxxxxxxx |     10686456 |     10686457 |     10686458 |xxxxxxxxxxxxx |xxxxxxxxxxxxx |xxxxxxxxxxxxx |xxxxxxxxxxxxx |     22425607 |     22425609 |     22425610 |xxxxxxxxxxxxx |xxxxxxxxxxxxx |xxxxxxxxxxxxx |xxxxxxxxxxxxx |     46940461 |     46940462 |     46940463 |
bpred_bimod.jr_hits                           8557 |         8557 |         8557 |xxxxxxxxxxxxx |xxxxxxxxxxxxx |xxxxxxxxxxxxx |xxxxxxxxxxxxx |        16759 |        16759 |        16759 |xxxxxxxxxxxxx |xxxxxxxxxxxxx |xxxxxxxxxxxxx |xxxxxxxxxxxxx |        33141 |        33141 |        33141 |xxxxxxxxxxxxx |xxxxxxxxxxxxx |xxxxxxxxxxxxx |xxxxxxxxxxxxx |        65911 |        65911 |        65911 |xxxxxxxxxxxxx |xxxxxxxxxxxxx |xxxxxxxxxxxxx |xxxxxxxxxxxxx |       131445 |       131445 |       131445 |xxxxxxxxxxxxx |xxxxxxxxxxxxx |xxxxxxxxxxxxx |xxxxxxxxxxxxx |       262519 |       262519 |       262519 |xxxxxxxxxxxxx |xxxxxxxxxxxxx |xxxxxxxxxxxxx |xxxxxxxxxxxxx |       524661 |       524661 |       524661 |xxxxxxxxxxxxx |xxxxxxxxxxxxx |xxxxxxxxxxxxx |xxxxxxxxxxxxx |      1048951 |      1048951 |      1048951 |xxxxxxxxxxxxx |xxxxxxxxxxxxx |xxxxxxxxxxxxx |xxxxxxxxxxxxx |      2097528 |      2097528 |      2097528 |xxxxxxxxxxxxx |xxxxxxxxxxxxx |xxxxxxxxxxxxx |xxxxxxxxxxxxx |      4194683 |      4194683 |      4194683 |xxxxxxxxxxxxx |xxxxxxxxxxxxx |xxxxxxxxxxxxx |xxxxxxxxxxxxx |      8388984 |      8388984 |      8388984 |
bpred_bimod.jr_seen                           8557 |         8557 |         8557 |xxxxxxxxxxxxx |xxxxxxxxxxxxx |xxxxxxxxxxxxx |xxxxxxxxxxxxx |        16761 |        16761 |        16761 |xxxxxxxxxxxxx |xxxxxxxxxxxxx |xxxxxxxxxxxxx |xxxxxxxxxxxxx |        33142 |        33142 |        33142 |xxxxxxxxxxxxx |xxxxxxxxxxxxx |xxxxxxxxxxxxx |xxxxxxxxxxxxx |        65913 |        65913 |        65913 |xxxxxxxxxxxxx |xxxxxxxxxxxxx |xxxxxxxxxxxxx |xxxxxxxxxxxxx |       131446 |       131446 |       131446 |xxxxxxxxxxxxx |xxxxxxxxxxxxx |xxxxxxxxxxxxx |xxxxxxxxxxxxx |       262521 |       262521 |       262521 |xxxxxxxxxxxxx |xxxxxxxxxxxxx |xxxxxxxxxxxxx |xxxxxxxxxxxxx |       524662 |       524662 |       524662 |xxxxxxxxxxxxx |xxxxxxxxxxxxx |xxxxxxxxxxxxx |xxxxxxxxxxxxx |      1048953 |      1048953 |      1048953 |xxxxxxxxxxxxx |xxxxxxxxxxxxx |xxxxxxxxxxxxx |xxxxxxxxxxxxx |      2097529 |      2097529 |      2097529 |xxxxxxxxxxxxx |xxxxxxxxxxxxx |xxxxxxxxxxxxx |xxxxxxxxxxxxx |      4194684 |      4194684 |      4194684 |xxxxxxxxxxxxx |xxxxxxxxxxxxx |xxxxxxxxxxxxx |xxxxxxxxxxxxx |      8388985 |      8388985 |      8388985 |
bpred_bimod.jr_non_ras_hits.PP                   0 |            0 |            0 |xxxxxxxxxxxxx |xxxxxxxxxxxxx |xxxxxxxxxxxxx |xxxxxxxxxxxxx |            0 |            0 |            0 |xxxxxxxxxxxxx |xxxxxxxxxxxxx |xxxxxxxxxxxxx |xxxxxxxxxxxxx |            0 |            0 |            0 |xxxxxxxxxxxxx |xxxxxxxxxxxxx |xxxxxxxxxxxxx |xxxxxxxxxxxxx |            0 |            0 |            0 |xxxxxxxxxxxxx |xxxxxxxxxxxxx |xxxxxxxxxxxxx |xxxxxxxxxxxxx |            0 |            0 |            0 |xxxxxxxxxxxxx |xxxxxxxxxxxxx |xxxxxxxxxxxxx |xxxxxxxxxxxxx |            0 |            0 |            0 |xxxxxxxxxxxxx |xxxxxxxxxxxxx |xxxxxxxxxxxxx |xxxxxxxxxxxxx |            0 |            0 |            0 |xxxxxxxxxxxxx |xxxxxxxxxxxxx |xxxxxxxxxxxxx |xxxxxxxxxxxxx |            0 |            0 |            0 |xxxxxxxxxxxxx |xxxxxxxxxxxxx |xxxxxxxxxxxxx |xxxxxxxxxxxxx |            0 |            0 |            0 |xxxxxxxxxxxxx |xxxxxxxxxxxxx |xxxxxxxxxxxxx |xxxxxxxxxxxxx |            1 |            1 |            1 |xxxxxxxxxxxxx |xxxxxxxxxxxxx |xxxxxxxxxxxxx |xxxxxxxxxxxxx |            0 |            0 |            0 |
bpred_bimod.jr_non_ras_seen.PP                   0 |            0 |            0 |xxxxxxxxxxxxx |xxxxxxxxxxxxx |xxxxxxxxxxxxx |xxxxxxxxxxxxx |            1 |            1 |            1 |xxxxxxxxxxxxx |xxxxxxxxxxxxx |xxxxxxxxxxxxx |xxxxxxxxxxxxx |            0 |            0 |            0 |xxxxxxxxxxxxx |xxxxxxxxxxxxx |xxxxxxxxxxxxx |xxxxxxxxxxxxx |            1 |            1 |            1 |xxxxxxxxxxxxx |xxxxxxxxxxxxx |xxxxxxxxxxxxx |xxxxxxxxxxxxx |            0 |            0 |            0 |xxxxxxxxxxxxx |xxxxxxxxxxxxx |xxxxxxxxxxxxx |xxxxxxxxxxxxx |            1 |            1 |            1 |xxxxxxxxxxxxx |xxxxxxxxxxxxx |xxxxxxxxxxxxx |xxxxxxxxxxxxx |            0 |            0 |            0 |xxxxxxxxxxxxx |xxxxxxxxxxxxx |xxxxxxxxxxxxx |xxxxxxxxxxxxx |            1 |            1 |            1 |xxxxxxxxxxxxx |xxxxxxxxxxxxx |xxxxxxxxxxxxx |xxxxxxxxxxxxx |            1 |            1 |            1 |xxxxxxxxxxxxx |xxxxxxxxxxxxx |xxxxxxxxxxxxx |xxxxxxxxxxxxx |            2 |            2 |            2 |xxxxxxxxxxxxx |xxxxxxxxxxxxx |xxxxxxxxxxxxx |xxxxxxxxxxxxx |            1 |            1 |            1 |
bpred_bimod.bpred_addr_rate                 0.7969 |       0.7969 |       0.7969 |xxxxxxxxxxxxx |xxxxxxxxxxxxx |xxxxxxxxxxxxx |xxxxxxxxxxxxx |       0.7938 |       0.7938 |       0.7938 |xxxxxxxxxxxxx |xxxxxxxxxxxxx |xxxxxxxxxxxxx |xxxxxxxxxxxxx |       0.7893 |       0.7893 |       0.7893 |xxxxxxxxxxxxx |xxxxxxxxxxxxx |xxxxxxxxxxxxx |xxxxxxxxxxxxx |       0.7878 |       0.7878 |       0.7878 |xxxxxxxxxxxxx |xxxxxxxxxxxxx |xxxxxxxxxxxxx |xxxxxxxxxxxxx |       0.7850 |       0.7850 |       0.7850 |xxxxxxxxxxxxx |xxxxxxxxxxxxx |xxxxxxxxxxxxx |xxxxxxxxxxxxx |       0.7837 |       0.7837 |       0.7837 |xxxxxxxxxxxxx |xxxxxxxxxxxxx |xxxxxxxxxxxxx |xxxxxxxxxxxxx |       0.7815 |       0.7815 |       0.7815 |xxxxxxxxxxxxx |xxxxxxxxxxxxx |xxxxxxxxxxxxx |xxxxxxxxxxxxx |       0.7806 |       0.7806 |       0.7806 |xxxxxxxxxxxxx |xxxxxxxxxxxxx |xxxxxxxxxxxxx |xxxxxxxxxxxxx |       0.7786 |       0.7786 |       0.7786 |xxxxxxxxxxxxx |xxxxxxxxxxxxx |xxxxxxxxxxxxx |xxxxxxxxxxxxx |       0.7780 |       0.7780 |       0.7780 |xxxxxxxxxxxxx |xxxxxxxxxxxxx |xxxxxxxxxxxxx |xxxxxxxxxxxxx |       0.7764 |       0.7764 |       0.7764 |
bpred_bimod.bpred_dir_rate                  0.7979 |       0.7979 |       0.7979 |xxxxxxxxxxxxx |xxxxxxxxxxxxx |xxxxxxxxxxxxx |xxxxxxxxxxxxx |       0.7943 |       0.7943 |       0.7943 |xxxxxxxxxxxxx |xxxxxxxxxxxxx |xxxxxxxxxxxxx |xxxxxxxxxxxxx |       0.7895 |       0.7895 |       0.7895 |xxxxxxxxxxxxx |xxxxxxxxxxxxx |xxxxxxxxxxxxx |xxxxxxxxxxxxx |       0.7879 |       0.7879 |       0.7879 |xxxxxxxxxxxxx |xxxxxxxxxxxxx |xxxxxxxxxxxxx |xxxxxxxxxxxxx |       0.7851 |       0.7851 |       0.7851 |xxxxxxxxxxxxx |xxxxxxxxxxxxx |xxxxxxxxxxxxx |xxxxxxxxxxxxx |       0.7837 |       0.7837 |       0.7837 |xxxxxxxxxxxxx |xxxxxxxxxxxxx |xxxxxxxxxxxxx |xxxxxxxxxxxxx |       0.7815 |       0.7815 |       0.7815 |xxxxxxxxxxxxx |xxxxxxxxxxxxx |xxxxxxxxxxxxx |xxxxxxxxxxxxx |       0.7806 |       0.7806 |       0.7806 |xxxxxxxxxxxxx |xxxxxxxxxxxxx |xxxxxxxxxxxxx |xxxxxxxxxxxxx |       0.7786 |       0.7786 |       0.7786 |xxxxxxxxxxxxx |xxxxxxxxxxxxx |xxxxxxxxxxxxx |xxxxxxxxxxxxx |       0.7780 |       0.7780 |       0.7780 |xxxxxxxxxxxxx |xxxxxxxxxxxxx |xxxxxxxxxxxxx |xxxxxxxxxxxxx |       0.7764 |       0.7764 |       0.7764 |
bpred_bimod.bpred_jr_rate                   1.0000 |       1.0000 |       1.0000 |xxxxxxxxxxxxx |xxxxxxxxxxxxx |xxxxxxxxxxxxx |xxxxxxxxxxxxx |       0.9999 |       0.9999 |       0.9999 |xxxxxxxxxxxxx |xxxxxxxxxxxxx |xxxxxxxxxxxxx |xxxxxxxxxxxxx |       1.0000 |       1.0000 |       1.0000 |xxxxxxxxxxxxx |xxxxxxxxxxxxx |xxxxxxxxxxxxx |xxxxxxxxxxxxx |       1.0000 |       1.0000 |       1.0000 |xxxxxxxxxxxxx |xxxxxxxxxxxxx |xxxxxxxxxxxxx |xxxxxxxxxxxxx |       1.0000 |       1.0000 |       1.0000 |xxxxxxxxxxxxx |xxxxxxxxxxxxx |xxxxxxxxxxxxx |xxxxxxxxxxxxx |       1.0000 |       1.0000 |       1.0000 |xxxxxxxxxxxxx |xxxxxxxxxxxxx |xxxxxxxxxxxxx |xxxxxxxxxxxxx |       1.0000 |       1.0000 |       1.0000 |xxxxxxxxxxxxx |xxxxxxxxxxxxx |xxxxxxxxxxxxx |xxxxxxxxxxxxx |       1.0000 |       1.0000 |       1.0000 |xxxxxxxxxxxxx |xxxxxxxxxxxxx |xxxxxxxxxxxxx |xxxxxxxxxxxxx |       1.0000 |       1.0000 |       1.0000 |xxxxxxxxxxxxx |xxxxxxxxxxxxx |xxxxxxxxxxxxx |xxxxxxxxxxxxx |       1.0000 |       1.0000 |       1.0000 |xxxxxxxxxxxxx |xxxxxxxxxxxxx |xxxxxxxxxxxxx |xxxxxxxxxxxxx |       1.0000 |       1.0000 |       1.0000 |
bpred_bimod.bpred_jr_non_ras_rate.PP       <error: |      <error: |      <error: |xxxxxxxxxxxxx |xxxxxxxxxxxxx |xxxxxxxxxxxxx |xxxxxxxxxxxxx |       0.0000 |       0.0000 |       0.0000 |xxxxxxxxxxxxx |xxxxxxxxxxxxx |xxxxxxxxxxxxx |xxxxxxxxxxxxx |      <error: |      <error: |      <error: |xxxxxxxxxxxxx |xxxxxxxxxxxxx |xxxxxxxxxxxxx |xxxxxxxxxxxxx |       0.0000 |       0.0000 |       0.0000 |xxxxxxxxxxxxx |xxxxxxxxxxxxx |xxxxxxxxxxxxx |xxxxxxxxxxxxx |      <error: |      <error: |      <error: |xxxxxxxxxxxxx |xxxxxxxxxxxxx |xxxxxxxxxxxxx |xxxxxxxxxxxxx |       0.0000 |       0.0000 |       0.0000 |xxxxxxxxxxxxx |xxxxxxxxxxxxx |xxxxxxxxxxxxx |xxxxxxxxxxxxx |      <error: |      <error: |      <error: |xxxxxxxxxxxxx |xxxxxxxxxxxxx |xxxxxxxxxxxxx |xxxxxxxxxxxxx |       0.0000 |       0.0000 |       0.0000 |xxxxxxxxxxxxx |xxxxxxxxxxxxx |xxxxxxxxxxxxx |xxxxxxxxxxxxx |       0.0000 |       0.0000 |       0.0000 |xxxxxxxxxxxxx |xxxxxxxxxxxxx |xxxxxxxxxxxxx |xxxxxxxxxxxxx |       0.5000 |       0.5000 |       0.5000 |xxxxxxxxxxxxx |xxxxxxxxxxxxx |xxxxxxxxxxxxx |xxxxxxxxxxxxx |       0.0000 |       0.0000 |       0.0000 |
bpred_bimod.retstack_pushes                   8559 |         8559 |         8559 |xxxxxxxxxxxxx |xxxxxxxxxxxxx |xxxxxxxxxxxxx |xxxxxxxxxxxxx |        16762 |        16762 |        16762 |xxxxxxxxxxxxx |xxxxxxxxxxxxx |xxxxxxxxxxxxx |xxxxxxxxxxxxx |        33144 |        33144 |        33144 |xxxxxxxxxxxxx |xxxxxxxxxxxxx |xxxxxxxxxxxxx |xxxxxxxxxxxxx |        65914 |        65914 |        65914 |xxxxxxxxxxxxx |xxxxxxxxxxxxx |xxxxxxxxxxxxx |xxxxxxxxxxxxx |       131448 |       131448 |       131448 |xxxxxxxxxxxxx |xxxxxxxxxxxxx |xxxxxxxxxxxxx |xxxxxxxxxxxxx |       262522 |       262522 |       262522 |xxxxxxxxxxxxx |xxxxxxxxxxxxx |xxxxxxxxxxxxx |xxxxxxxxxxxxx |       524664 |       524664 |       524664 |xxxxxxxxxxxxx |xxxxxxxxxxxxx |xxxxxxxxxxxxx |xxxxxxxxxxxxx |      1048954 |      1048954 |      1048954 |xxxxxxxxxxxxx |xxxxxxxxxxxxx |xxxxxxxxxxxxx |xxxxxxxxxxxxx |      2097530 |      2097530 |      2097530 |xxxxxxxxxxxxx |xxxxxxxxxxxxx |xxxxxxxxxxxxx |xxxxxxxxxxxxx |      4194684 |      4194684 |      4194684 |xxxxxxxxxxxxx |xxxxxxxxxxxxx |xxxxxxxxxxxxx |xxxxxxxxxxxxx |      8388986 |      8388986 |      8388986 |
bpred_bimod.retstack_pops                     8557 |         8557 |         8557 |xxxxxxxxxxxxx |xxxxxxxxxxxxx |xxxxxxxxxxxxx |xxxxxxxxxxxxx |        16760 |        16760 |        16760 |xxxxxxxxxxxxx |xxxxxxxxxxxxx |xxxxxxxxxxxxx |xxxxxxxxxxxxx |        33142 |        33142 |        33142 |xxxxxxxxxxxxx |xxxxxxxxxxxxx |xxxxxxxxxxxxx |xxxxxxxxxxxxx |        65912 |        65912 |        65912 |xxxxxxxxxxxxx |xxxxxxxxxxxxx |xxxxxxxxxxxxx |xxxxxxxxxxxxx |       131446 |       131446 |       131446 |xxxxxxxxxxxxx |xxxxxxxxxxxxx |xxxxxxxxxxxxx |xxxxxxxxxxxxx |       262520 |       262520 |       262520 |xxxxxxxxxxxxx |xxxxxxxxxxxxx |xxxxxxxxxxxxx |xxxxxxxxxxxxx |       524662 |       524662 |       524662 |xxxxxxxxxxxxx |xxxxxxxxxxxxx |xxxxxxxxxxxxx |xxxxxxxxxxxxx |      1048952 |      1048952 |      1048952 |xxxxxxxxxxxxx |xxxxxxxxxxxxx |xxxxxxxxxxxxx |xxxxxxxxxxxxx |      2097528 |      2097528 |      2097528 |xxxxxxxxxxxxx |xxxxxxxxxxxxx |xxxxxxxxxxxxx |xxxxxxxxxxxxx |      4194682 |      4194682 |      4194682 |xxxxxxxxxxxxx |xxxxxxxxxxxxx |xxxxxxxxxxxxx |xxxxxxxxxxxxx |      8388984 |      8388984 |      8388984 |
bpred_bimod.used_ras.PP                       8557 |         8557 |         8557 |xxxxxxxxxxxxx |xxxxxxxxxxxxx |xxxxxxxxxxxxx |xxxxxxxxxxxxx |        16760 |        16760 |        16760 |xxxxxxxxxxxxx |xxxxxxxxxxxxx |xxxxxxxxxxxxx |xxxxxxxxxxxxx |        33142 |        33142 |        33142 |xxxxxxxxxxxxx |xxxxxxxxxxxxx |xxxxxxxxxxxxx |xxxxxxxxxxxxx |        65912 |        65912 |        65912 |xxxxxxxxxxxxx |xxxxxxxxxxxxx |xxxxxxxxxxxxx |xxxxxxxxxxxxx |       131446 |       131446 |       131446 |xxxxxxxxxxxxx |xxxxxxxxxxxxx |xxxxxxxxxxxxx |xxxxxxxxxxxxx |       262520 |       262520 |       262520 |xxxxxxxxxxxxx |xxxxxxxxxxxxx |xxxxxxxxxxxxx |xxxxxxxxxxxxx |       524662 |       524662 |       524662 |xxxxxxxxxxxxx |xxxxxxxxxxxxx |xxxxxxxxxxxxx |xxxxxxxxxxxxx |      1048952 |      1048952 |      1048952 |xxxxxxxxxxxxx |xxxxxxxxxxxxx |xxxxxxxxxxxxx |xxxxxxxxxxxxx |      2097528 |      2097528 |      2097528 |xxxxxxxxxxxxx |xxxxxxxxxxxxx |xxxxxxxxxxxxx |xxxxxxxxxxxxx |      4194682 |      4194682 |      4194682 |xxxxxxxxxxxxx |xxxxxxxxxxxxx |xxxxxxxxxxxxx |xxxxxxxxxxxxx |      8388984 |      8388984 |      8388984 |
bpred_bimod.ras_hits.PP                       8557 |         8557 |         8557 |xxxxxxxxxxxxx |xxxxxxxxxxxxx |xxxxxxxxxxxxx |xxxxxxxxxxxxx |        16759 |        16759 |        16759 |xxxxxxxxxxxxx |xxxxxxxxxxxxx |xxxxxxxxxxxxx |xxxxxxxxxxxxx |        33141 |        33141 |        33141 |xxxxxxxxxxxxx |xxxxxxxxxxxxx |xxxxxxxxxxxxx |xxxxxxxxxxxxx |        65911 |        65911 |        65911 |xxxxxxxxxxxxx |xxxxxxxxxxxxx |xxxxxxxxxxxxx |xxxxxxxxxxxxx |       131445 |       131445 |       131445 |xxxxxxxxxxxxx |xxxxxxxxxxxxx |xxxxxxxxxxxxx |xxxxxxxxxxxxx |       262519 |       262519 |       262519 |xxxxxxxxxxxxx |xxxxxxxxxxxxx |xxxxxxxxxxxxx |xxxxxxxxxxxxx |       524661 |       524661 |       524661 |xxxxxxxxxxxxx |xxxxxxxxxxxxx |xxxxxxxxxxxxx |xxxxxxxxxxxxx |      1048951 |      1048951 |      1048951 |xxxxxxxxxxxxx |xxxxxxxxxxxxx |xxxxxxxxxxxxx |xxxxxxxxxxxxx |      2097528 |      2097528 |      2097528 |xxxxxxxxxxxxx |xxxxxxxxxxxxx |xxxxxxxxxxxxx |xxxxxxxxxxxxx |      4194682 |      4194682 |      4194682 |xxxxxxxxxxxxx |xxxxxxxxxxxxx |xxxxxxxxxxxxx |xxxxxxxxxxxxx |      8388984 |      8388984 |      8388984 |
bpred_bimod.ras_rate.PP                     1.0000 |       1.0000 |       1.0000 |xxxxxxxxxxxxx |xxxxxxxxxxxxx |xxxxxxxxxxxxx |xxxxxxxxxxxxx |       0.9999 |       0.9999 |       0.9999 |xxxxxxxxxxxxx |xxxxxxxxxxxxx |xxxxxxxxxxxxx |xxxxxxxxxxxxx |       1.0000 |       1.0000 |       1.0000 |xxxxxxxxxxxxx |xxxxxxxxxxxxx |xxxxxxxxxxxxx |xxxxxxxxxxxxx |       1.0000 |       1.0000 |       1.0000 |xxxxxxxxxxxxx |xxxxxxxxxxxxx |xxxxxxxxxxxxx |xxxxxxxxxxxxx |       1.0000 |       1.0000 |       1.0000 |xxxxxxxxxxxxx |xxxxxxxxxxxxx |xxxxxxxxxxxxx |xxxxxxxxxxxxx |       1.0000 |       1.0000 |       1.0000 |xxxxxxxxxxxxx |xxxxxxxxxxxxx |xxxxxxxxxxxxx |xxxxxxxxxxxxx |       1.0000 |       1.0000 |       1.0000 |xxxxxxxxxxxxx |xxxxxxxxxxxxx |xxxxxxxxxxxxx |xxxxxxxxxxxxx |       1.0000 |       1.0000 |       1.0000 |xxxxxxxxxxxxx |xxxxxxxxxxxxx |xxxxxxxxxxxxx |xxxxxxxxxxxxx |       1.0000 |       1.0000 |       1.0000 |xxxxxxxxxxxxx |xxxxxxxxxxxxx |xxxxxxxxxxxxx |xxxxxxxxxxxxx |       1.0000 |       1.0000 |       1.0000 |xxxxxxxxxxxxx |xxxxxxxxxxxxx |xxxxxxxxxxxxx |xxxxxxxxxxxxx |       1.0000 |       1.0000 |       1.0000 |
bpred_2lev.lookups                   xxxxxxxxxxxxx |xxxxxxxxxxxxx |xxxxxxxxxxxxx |       125429 |       125429 |       125429 |       125429 |xxxxxxxxxxxxx |xxxxxxxxxxxxx |xxxxxxxxxxxxx |       265775 |       265775 |       265775 |       265775 |xxxxxxxxxxxxx |xxxxxxxxxxxxx |xxxxxxxxxxxxx |       559560 |       559560 |       559560 |       559560 |xxxxxxxxxxxxx |xxxxxxxxxxxxx |xxxxxxxxxxxxx |      1186221 |      1186221 |      1186221 |      1186221 |xxxxxxxxxxxxx |xxxxxxxxxxxxx |xxxxxxxxxxxxx |      2493440 |      2493440 |      2493440 |      2493440 |xxxxxxxxxxxxx |xxxxxxxxxxxxx |xxxxxxxxxxxxx |      5266722 |      5266722 |      5266722 |      5266722 |xxxxxxxxxxxxx |xxxxxxxxxxxxx |xxxxxxxxxxxxx |     11022007 |     11022007 |     11022007 |     11022007 |xxxxxxxxxxxxx |xxxxxxxxxxxxx |xxxxxxxxxxxxx |     23156865 |     23156865 |     23156865 |     23156865 |xxxxxxxxxxxxx |xxxxxxxxxxxxx |xxxxxxxxxxxxx |     48276157 |     48276157 |     48276157 |     48276157 |xxxxxxxxxxxxx |xxxxxxxxxxxxx |xxxxxxxxxxxxx |    101017606 |    101017606 |    101017606 |    101017606 |xxxxxxxxxxxxx |xxxxxxxxxxxxx |xxxxxxxxxxxxx |    209909182 |    209909182 |    209909182 |    209909182 |
[...]
bpred_2lev.retstack_pushes           xxxxxxxxxxxxx |xxxxxxxxxxxxx |xxxxxxxxxxxxx |         8559 |         8559 |         8559 |         8559 |xxxxxxxxxxxxx |xxxxxxxxxxxxx |xxxxxxxxxxxxx |        16762 |        16762 |        16762 |        16762 |xxxxxxxxxxxxx |xxxxxxxxxxxxx |xxxxxxxxxxxxx |        33144 |        33144 |        33144 |        33144 |xxxxxxxxxxxxx |xxxxxxxxxxxxx |xxxxxxxxxxxxx |        65914 |        65914 |        65914 |        65914 |xxxxxxxxxxxxx |xxxxxxxxxxxxx |xxxxxxxxxxxxx |       131448 |       131448 |       131448 |       131448 |xxxxxxxxxxxxx |xxxxxxxxxxxxx |xxxxxxxxxxxxx |       262522 |       262522 |       262522 |       262522 |xxxxxxxxxxxxx |xxxxxxxxxxxxx |xxxxxxxxxxxxx |       524664 |       524664 |       524664 |       524664 |xxxxxxxxxxxxx |xxxxxxxxxxxxx |xxxxxxxxxxxxx |      1048954 |      1048954 |      1048954 |      1048954 |xxxxxxxxxxxxx |xxxxxxxxxxxxx |xxxxxxxxxxxxx |      2097530 |      2097530 |      2097530 |      2097530 |xxxxxxxxxxxxx |xxxxxxxxxxxxx |xxxxxxxxxxxxx |      4194684 |      4194684 |      4194684 |      4194684 |xxxxxxxxxxxxx |xxxxxxxxxxxxx |xxxxxxxxxxxxx |      8388986 |      8388986 |      8388986 |      8388986 |
bpred_2lev.retstack_pops             xxxxxxxxxxxxx |xxxxxxxxxxxxx |xxxxxxxxxxxxx |         8557 |         8557 |         8557 |         8557 |xxxxxxxxxxxxx |xxxxxxxxxxxxx |xxxxxxxxxxxxx |        16760 |        16760 |        16760 |        16760 |xxxxxxxxxxxxx |xxxxxxxxxxxxx |xxxxxxxxxxxxx |        33142 |        33142 |        33142 |        33142 |xxxxxxxxxxxxx |xxxxxxxxxxxxx |xxxxxxxxxxxxx |        65912 |        65912 |        65912 |        65912 |xxxxxxxxxxxxx |xxxxxxxxxxxxx |xxxxxxxxxxxxx |       131446 |       131446 |       131446 |       131446 |xxxxxxxxxxxxx |xxxxxxxxxxxxx |xxxxxxxxxxxxx |       262520 |       262520 |       262520 |       262520 |xxxxxxxxxxxxx |xxxxxxxxxxxxx |xxxxxxxxxxxxx |       524662 |       524662 |       524662 |       524662 |xxxxxxxxxxxxx |xxxxxxxxxxxxx |xxxxxxxxxxxxx |      1048952 |      1048952 |      1048952 |      1048952 |xxxxxxxxxxxxx |xxxxxxxxxxxxx |xxxxxxxxxxxxx |      2097528 |      2097528 |      2097528 |      2097528 |xxxxxxxxxxxxx |xxxxxxxxxxxxx |xxxxxxxxxxxxx |      4194682 |      4194682 |      4194682 |      4194682 |xxxxxxxxxxxxx |xxxxxxxxxxxxx |xxxxxxxxxxxxx |      8388984 |      8388984 |      8388984 |      8388984 |
bpred_2lev.used_ras.PP               xxxxxxxxxxxxx |xxxxxxxxxxxxx |xxxxxxxxxxxxx |         8557 |         8557 |         8557 |         8557 |xxxxxxxxxxxxx |xxxxxxxxxxxxx |xxxxxxxxxxxxx |        16760 |        16760 |        16760 |        16760 |xxxxxxxxxxxxx |xxxxxxxxxxxxx |xxxxxxxxxxxxx |        33142 |        33142 |        33142 |        33142 |xxxxxxxxxxxxx |xxxxxxxxxxxxx |xxxxxxxxxxxxx |        65912 |        65912 |        65912 |        65912 |xxxxxxxxxxxxx |xxxxxxxxxxxxx |xxxxxxxxxxxxx |       131446 |       131446 |       131446 |       131446 |xxxxxxxxxxxxx |xxxxxxxxxxxxx |xxxxxxxxxxxxx |       262520 |       262520 |       262520 |       262520 |xxxxxxxxxxxxx |xxxxxxxxxxxxx |xxxxxxxxxxxxx |       524662 |       524662 |       524662 |       524662 |xxxxxxxxxxxxx |xxxxxxxxxxxxx |xxxxxxxxxxxxx |      1048952 |      1048952 |      1048952 |      1048952 |xxxxxxxxxxxxx |xxxxxxxxxxxxx |xxxxxxxxxxxxx |      2097528 |      2097528 |      2097528 |      2097528 |xxxxxxxxxxxxx |xxxxxxxxxxxxx |xxxxxxxxxxxxx |      4194682 |      4194682 |      4194682 |      4194682 |xxxxxxxxxxxxx |xxxxxxxxxxxxx |xxxxxxxxxxxxx |      8388984 |      8388984 |      8388984 |      8388984 |
bpred_2lev.ras_hits.PP               xxxxxxxxxxxxx |xxxxxxxxxxxxx |xxxxxxxxxxxxx |         8557 |         8557 |         8557 |         8557 |xxxxxxxxxxxxx |xxxxxxxxxxxxx |xxxxxxxxxxxxx |        16759 |        16759 |        16759 |        16759 |xxxxxxxxxxxxx |xxxxxxxxxxxxx |xxxxxxxxxxxxx |        33141 |        33141 |        33141 |        33141 |xxxxxxxxxxxxx |xxxxxxxxxxxxx |xxxxxxxxxxxxx |        65911 |        65911 |        65911 |        65911 |xxxxxxxxxxxxx |xxxxxxxxxxxxx |xxxxxxxxxxxxx |       131445 |       131445 |       131445 |       131445 |xxxxxxxxxxxxx |xxxxxxxxxxxxx |xxxxxxxxxxxxx |       262519 |       262519 |       262519 |       262519 |xxxxxxxxxxxxx |xxxxxxxxxxxxx |xxxxxxxxxxxxx |       524661 |       524661 |       524661 |       524661 |xxxxxxxxxxxxx |xxxxxxxxxxxxx |xxxxxxxxxxxxx |      1048951 |      1048951 |      1048951 |      1048951 |xxxxxxxxxxxxx |xxxxxxxxxxxxx |xxxxxxxxxxxxx |      2097528 |      2097528 |      2097528 |      2097528 |xxxxxxxxxxxxx |xxxxxxxxxxxxx |xxxxxxxxxxxxx |      4194682 |      4194682 |      4194682 |      4194682 |xxxxxxxxxxxxx |xxxxxxxxxxxxx |xxxxxxxxxxxxx |      8388984 |      8388984 |      8388984 |      8388984 |
bpred_2lev.ras_rate.PP               xxxxxxxxxxxxx |xxxxxxxxxxxxx |xxxxxxxxxxxxx |       1.0000 |       1.0000 |       1.0000 |       1.0000 |xxxxxxxxxxxxx |xxxxxxxxxxxxx |xxxxxxxxxxxxx |       0.9999 |       0.9999 |       0.9999 |       0.9999 |xxxxxxxxxxxxx |xxxxxxxxxxxxx |xxxxxxxxxxxxx |       1.0000 |       1.0000 |       1.0000 |       1.0000 |xxxxxxxxxxxxx |xxxxxxxxxxxxx |xxxxxxxxxxxxx |       1.0000 |       1.0000 |       1.0000 |       1.0000 |xxxxxxxxxxxxx |xxxxxxxxxxxxx |xxxxxxxxxxxxx |       1.0000 |       1.0000 |       1.0000 |       1.0000 |xxxxxxxxxxxxx |xxxxxxxxxxxxx |xxxxxxxxxxxxx |       1.0000 |       1.0000 |       1.0000 |       1.0000 |xxxxxxxxxxxxx |xxxxxxxxxxxxx |xxxxxxxxxxxxx |       1.0000 |       1.0000 |       1.0000 |       1.0000 |xxxxxxxxxxxxx |xxxxxxxxxxxxx |xxxxxxxxxxxxx |       1.0000 |       1.0000 |       1.0000 |       1.0000 |xxxxxxxxxxxxx |xxxxxxxxxxxxx |xxxxxxxxxxxxx |       1.0000 |       1.0000 |       1.0000 |       1.0000 |xxxxxxxxxxxxx |xxxxxxxxxxxxx |xxxxxxxxxxxxx |       1.0000 |       1.0000 |       1.0000 |       1.0000 |xxxxxxxxxxxxx |xxxxxxxxxxxxx |xxxxxxxxxxxxx |       1.0000 |       1.0000 |       1.0000 |       1.0000 |

Command list: 
	sslittle-na-sstrix-gcc -Wall -O3 -funroll-loops -finline-functions  -DRANDOM_SIZE=4096 -DSEED=0 -DSORT=base_mergesort base_mergesort1343329349.c simpleMain.c -o base_mergesort1444251979
	sim-cache -cache:dl1 dl1:256:32:1:l -cache:dl2 dl2:131072:32:1:l -cache:il1 il1:256:32:1:l -cache:il2 dl2 base_mergesort1444251979
	sim-cache -cache:dl1 dl1:256:32:1:l -cache:dl2 dl2:65536:32:1:l -cache:il1 il1:256:32:1:l -cache:il2 dl2 base_mergesort1444251979
	sim-cache -cache:dl1 dl1:1:32:256:l -cache:dl2 dl2:1:32:131072:l -cache:il1 il1:1:32:256:l -cache:il2 dl2 base_mergesort1444251979
	sim-cache -cache:dl1 dl1:1:32:256:l -cache:dl2 dl2:1:32:65536:l -cache:il1 il1:1:32:256:l -cache:il2 dl2 base_mergesort1444251979
	sim-bpred -bpred bimod -bpred:bimod 512 base_mergesort1444251979
	sim-bpred -bpred bimod -bpred:bimod 1024 base_mergesort1444251979
	sim-bpred -bpred bimod -bpred:bimod 2048 base_mergesort1444251979
	sim-bpred -bpred 2lev -bpred:2lev 1 512 10 1 base_mergesort1444251979
	sim-bpred -bpred 2lev -bpred:2lev 1 1024 10 1 base_mergesort1444251979
	sim-bpred -bpred 2lev -bpred:2lev 1 2048 10 1 base_mergesort1444251979
	sim-bpred -bpred 2lev -bpred:2lev 1 4096 10 1 base_mergesort1444251979
	sslittle-na-sstrix-gcc -Wall -O3 -funroll-loops -finline-functions  -DRANDOM_SIZE=8192 -DSEED=0 -DSORT=base_mergesort base_mergesort1343329349.c simpleMain.c -o base_mergesort1444251979
	sim-cache -cache:dl1 dl1:256:32:1:l -cache:dl2 dl2:131072:32:1:l -cache:il1 il1:256:32:1:l -cache:il2 dl2 base_mergesort1444251979
	sim-cache -cache:dl1 dl1:256:32:1:l -cache:dl2 dl2:65536:32:1:l -cache:il1 il1:256:32:1:l -cache:il2 dl2 base_mergesort1444251979
	sim-cache -cache:dl1 dl1:1:32:256:l -cache:dl2 dl2:1:32:131072:l -cache:il1 il1:1:32:256:l -cache:il2 dl2 base_mergesort1444251979
	sim-cache -cache:dl1 dl1:1:32:256:l -cache:dl2 dl2:1:32:65536:l -cache:il1 il1:1:32:256:l -cache:il2 dl2 base_mergesort1444251979
	sim-bpred -bpred bimod -bpred:bimod 512 base_mergesort1444251979
	sim-bpred -bpred bimod -bpred:bimod 1024 base_mergesort1444251979
	sim-bpred -bpred bimod -bpred:bimod 2048 base_mergesort1444251979
	sim-bpred -bpred 2lev -bpred:2lev 1 512 10 1 base_mergesort1444251979
	sim-bpred -bpred 2lev -bpred:2lev 1 1024 10 1 base_mergesort1444251979
	sim-bpred -bpred 2lev -bpred:2lev 1 2048 10 1 base_mergesort1444251979
	sim-bpred -bpred 2lev -bpred:2lev 1 4096 10 1 base_mergesort1444251979
	sslittle-na-sstrix-gcc -Wall -O3 -funroll-loops -finline-functions  -DRANDOM_SIZE=16384 -DSEED=0 -DSORT=base_mergesort base_mergesort1343329349.c simpleMain.c -o base_mergesort1444251979
	sim-cache -cache:dl1 dl1:256:32:1:l -cache:dl2 dl2:131072:32:1:l -cache:il1 il1:256:32:1:l -cache:il2 dl2 base_mergesort1444251979
	sim-cache -cache:dl1 dl1:256:32:1:l -cache:dl2 dl2:65536:32:1:l -cache:il1 il1:256:32:1:l -cache:il2 dl2 base_mergesort1444251979
	sim-cache -cache:dl1 dl1:1:32:256:l -cache:dl2 dl2:1:32:131072:l -cache:il1 il1:1:32:256:l -cache:il2 dl2 base_mergesort1444251979
	sim-cache -cache:dl1 dl1:1:32:256:l -cache:dl2 dl2:1:32:65536:l -cache:il1 il1:1:32:256:l -cache:il2 dl2 base_mergesort1444251979
	sim-bpred -bpred bimod -bpred:bimod 512 base_mergesort1444251979
	sim-bpred -bpred bimod -bpred:bimod 1024 base_mergesort1444251979
	sim-bpred -bpred bimod -bpred:bimod 2048 base_mergesort1444251979
	sim-bpred -bpred 2lev -bpred:2lev 1 512 10 1 base_mergesort1444251979
	sim-bpred -bpred 2lev -bpred:2lev 1 1024 10 1 base_mergesort1444251979
	sim-bpred -bpred 2lev -bpred:2lev 1 2048 10 1 base_mergesort1444251979
	sim-bpred -bpred 2lev -bpred:2lev 1 4096 10 1 base_mergesort1444251979
	sslittle-na-sstrix-gcc -Wall -O3 -funroll-loops -finline-functions  -DRANDOM_SIZE=32768 -DSEED=0 -DSORT=base_mergesort base_mergesort1343329349.c simpleMain.c -o base_mergesort1444251979
	sim-cache -cache:dl1 dl1:256:32:1:l -cache:dl2 dl2:131072:32:1:l -cache:il1 il1:256:32:1:l -cache:il2 dl2 base_mergesort1444251979
	sim-cache -cache:dl1 dl1:256:32:1:l -cache:dl2 dl2:65536:32:1:l -cache:il1 il1:256:32:1:l -cache:il2 dl2 base_mergesort1444251979
	sim-cache -cache:dl1 dl1:1:32:256:l -cache:dl2 dl2:1:32:131072:l -cache:il1 il1:1:32:256:l -cache:il2 dl2 base_mergesort1444251979
	sim-cache -cache:dl1 dl1:1:32:256:l -cache:dl2 dl2:1:32:65536:l -cache:il1 il1:1:32:256:l -cache:il2 dl2 base_mergesort1444251979
	sim-bpred -bpred bimod -bpred:bimod 512 base_mergesort1444251979
	sim-bpred -bpred bimod -bpred:bimod 1024 base_mergesort1444251979
	sim-bpred -bpred bimod -bpred:bimod 2048 base_mergesort1444251979
	sim-bpred -bpred 2lev -bpred:2lev 1 512 10 1 base_mergesort1444251979
	sim-bpred -bpred 2lev -bpred:2lev 1 1024 10 1 base_mergesort1444251979
	sim-bpred -bpred 2lev -bpred:2lev 1 2048 10 1 base_mergesort1444251979
	sim-bpred -bpred 2lev -bpred:2lev 1 4096 10 1 base_mergesort1444251979
	sslittle-na-sstrix-gcc -Wall -O3 -funroll-loops -finline-functions  -DRANDOM_SIZE=65536 -DSEED=0 -DSORT=base_mergesort base_mergesort1343329349.c simpleMain.c -o base_mergesort1444251979
	sim-cache -cache:dl1 dl1:256:32:1:l -cache:dl2 dl2:131072:32:1:l -cache:il1 il1:256:32:1:l -cache:il2 dl2 base_mergesort1444251979
	sim-cache -cache:dl1 dl1:256:32:1:l -cache:dl2 dl2:65536:32:1:l -cache:il1 il1:256:32:1:l -cache:il2 dl2 base_mergesort1444251979
	sim-cache -cache:dl1 dl1:1:32:256:l -cache:dl2 dl2:1:32:131072:l -cache:il1 il1:1:32:256:l -cache:il2 dl2 base_mergesort1444251979
	sim-cache -cache:dl1 dl1:1:32:256:l -cache:dl2 dl2:1:32:65536:l -cache:il1 il1:1:32:256:l -cache:il2 dl2 base_mergesort1444251979
	sim-bpred -bpred bimod -bpred:bimod 512 base_mergesort1444251979
	sim-bpred -bpred bimod -bpred:bimod 1024 base_mergesort1444251979
	sim-bpred -bpred bimod -bpred:bimod 2048 base_mergesort1444251979
	sim-bpred -bpred 2lev -bpred:2lev 1 512 10 1 base_mergesort1444251979
	sim-bpred -bpred 2lev -bpred:2lev 1 1024 10 1 base_mergesort1444251979
	sim-bpred -bpred 2lev -bpred:2lev 1 2048 10 1 base_mergesort1444251979
	sim-bpred -bpred 2lev -bpred:2lev 1 4096 10 1 base_mergesort1444251979
	sslittle-na-sstrix-gcc -Wall -O3 -funroll-loops -finline-functions  -DRANDOM_SIZE=131072 -DSEED=0 -DSORT=base_mergesort base_mergesort1343329349.c simpleMain.c -o base_mergesort1444251979
	sim-cache -cache:dl1 dl1:256:32:1:l -cache:dl2 dl2:131072:32:1:l -cache:il1 il1:256:32:1:l -cache:il2 dl2 base_mergesort1444251979
	sim-cache -cache:dl1 dl1:256:32:1:l -cache:dl2 dl2:65536:32:1:l -cache:il1 il1:256:32:1:l -cache:il2 dl2 base_mergesort1444251979
	sim-cache -cache:dl1 dl1:1:32:256:l -cache:dl2 dl2:1:32:131072:l -cache:il1 il1:1:32:256:l -cache:il2 dl2 base_mergesort1444251979
	sim-cache -cache:dl1 dl1:1:32:256:l -cache:dl2 dl2:1:32:65536:l -cache:il1 il1:1:32:256:l -cache:il2 dl2 base_mergesort1444251979
	sim-bpred -bpred bimod -bpred:bimod 512 base_mergesort1444251979
	sim-bpred -bpred bimod -bpred:bimod 1024 base_mergesort1444251979
	sim-bpred -bpred bimod -bpred:bimod 2048 base_mergesort1444251979
	sim-bpred -bpred 2lev -bpred:2lev 1 512 10 1 base_mergesort1444251979
	sim-bpred -bpred 2lev -bpred:2lev 1 1024 10 1 base_mergesort1444251979
	sim-bpred -bpred 2lev -bpred:2lev 1 2048 10 1 base_mergesort1444251979
	sim-bpred -bpred 2lev -bpred:2lev 1 4096 10 1 base_mergesort1444251979
	sslittle-na-sstrix-gcc -Wall -O3 -funroll-loops -finline-functions  -DRANDOM_SIZE=262144 -DSEED=0 -DSORT=base_mergesort base_mergesort1343329349.c simpleMain.c -o base_mergesort1444251979
	sim-cache -cache:dl1 dl1:256:32:1:l -cache:dl2 dl2:131072:32:1:l -cache:il1 il1:256:32:1:l -cache:il2 dl2 base_mergesort1444251979
	sim-cache -cache:dl1 dl1:256:32:1:l -cache:dl2 dl2:65536:32:1:l -cache:il1 il1:256:32:1:l -cache:il2 dl2 base_mergesort1444251979
	sim-cache -cache:dl1 dl1:1:32:256:l -cache:dl2 dl2:1:32:131072:l -cache:il1 il1:1:32:256:l -cache:il2 dl2 base_mergesort1444251979
	sim-cache -cache:dl1 dl1:1:32:256:l -cache:dl2 dl2:1:32:65536:l -cache:il1 il1:1:32:256:l -cache:il2 dl2 base_mergesort1444251979
	sim-bpred -bpred bimod -bpred:bimod 512 base_mergesort1444251979
	sim-bpred -bpred bimod -bpred:bimod 1024 base_mergesort1444251979
	sim-bpred -bpred bimod -bpred:bimod 2048 base_mergesort1444251979
	sim-bpred -bpred 2lev -bpred:2lev 1 512 10 1 base_mergesort1444251979
	sim-bpred -bpred 2lev -bpred:2lev 1 1024 10 1 base_mergesort1444251979
	sim-bpred -bpred 2lev -bpred:2lev 1 2048 10 1 base_mergesort1444251979
	sim-bpred -bpred 2lev -bpred:2lev 1 4096 10 1 base_mergesort1444251979
	sslittle-na-sstrix-gcc -Wall -O3 -funroll-loops -finline-functions  -DRANDOM_SIZE=524288 -DSEED=0 -DSORT=base_mergesort base_mergesort1343329349.c simpleMain.c -o base_mergesort1444251979
	sim-cache -cache:dl1 dl1:256:32:1:l -cache:dl2 dl2:131072:32:1:l -cache:il1 il1:256:32:1:l -cache:il2 dl2 base_mergesort1444251979
	sim-cache -cache:dl1 dl1:256:32:1:l -cache:dl2 dl2:65536:32:1:l -cache:il1 il1:256:32:1:l -cache:il2 dl2 base_mergesort1444251979
	sim-cache -cache:dl1 dl1:1:32:256:l -cache:dl2 dl2:1:32:131072:l -cache:il1 il1:1:32:256:l -cache:il2 dl2 base_mergesort1444251979
	sim-cache -cache:dl1 dl1:1:32:256:l -cache:dl2 dl2:1:32:65536:l -cache:il1 il1:1:32:256:l -cache:il2 dl2 base_mergesort1444251979
	sim-bpred -bpred bimod -bpred:bimod 512 base_mergesort1444251979
	sim-bpred -bpred bimod -bpred:bimod 1024 base_mergesort1444251979
	sim-bpred -bpred bimod -bpred:bimod 2048 base_mergesort1444251979
	sim-bpred -bpred 2lev -bpred:2lev 1 512 10 1 base_mergesort1444251979
	sim-bpred -bpred 2lev -bpred:2lev 1 1024 10 1 base_mergesort1444251979
	sim-bpred -bpred 2lev -bpred:2lev 1 2048 10 1 base_mergesort1444251979
	sim-bpred -bpred 2lev -bpred:2lev 1 4096 10 1 base_mergesort1444251979
	sslittle-na-sstrix-gcc -Wall -O3 -funroll-loops -finline-functions  -DRANDOM_SIZE=1048576 -DSEED=0 -DSORT=base_mergesort base_mergesort1343329349.c simpleMain.c -o base_mergesort1444251979
	sim-cache -cache:dl1 dl1:256:32:1:l -cache:dl2 dl2:131072:32:1:l -cache:il1 il1:256:32:1:l -cache:il2 dl2 base_mergesort1444251979
	sim-cache -cache:dl1 dl1:256:32:1:l -cache:dl2 dl2:65536:32:1:l -cache:il1 il1:256:32:1:l -cache:il2 dl2 base_mergesort1444251979
	sim-cache -cache:dl1 dl1:1:32:256:l -cache:dl2 dl2:1:32:131072:l -cache:il1 il1:1:32:256:l -cache:il2 dl2 base_mergesort1444251979
	sim-cache -cache:dl1 dl1:1:32:256:l -cache:dl2 dl2:1:32:65536:l -cache:il1 il1:1:32:256:l -cache:il2 dl2 base_mergesort1444251979
	sim-bpred -bpred bimod -bpred:bimod 512 base_mergesort1444251979
	sim-bpred -bpred bimod -bpred:bimod 1024 base_mergesort1444251979
	sim-bpred -bpred bimod -bpred:bimod 2048 base_mergesort1444251979
	sim-bpred -bpred 2lev -bpred:2lev 1 512 10 1 base_mergesort1444251979
	sim-bpred -bpred 2lev -bpred:2lev 1 1024 10 1 base_mergesort1444251979
	sim-bpred -bpred 2lev -bpred:2lev 1 2048 10 1 base_mergesort1444251979
	sim-bpred -bpred 2lev -bpred:2lev 1 4096 10 1 base_mergesort1444251979
	sslittle-na-sstrix-gcc -Wall -O3 -funroll-loops -finline-functions  -DRANDOM_SIZE=2097152 -DSEED=0 -DSORT=base_mergesort base_mergesort1343329349.c simpleMain.c -o base_mergesort1444251979
	sim-cache -cache:dl1 dl1:256:32:1:l -cache:dl2 dl2:131072:32:1:l -cache:il1 il1:256:32:1:l -cache:il2 dl2 base_mergesort1444251979
	sim-cache -cache:dl1 dl1:256:32:1:l -cache:dl2 dl2:65536:32:1:l -cache:il1 il1:256:32:1:l -cache:il2 dl2 base_mergesort1444251979
	sim-cache -cache:dl1 dl1:1:32:256:l -cache:dl2 dl2:1:32:131072:l -cache:il1 il1:1:32:256:l -cache:il2 dl2 base_mergesort1444251979
	sim-cache -cache:dl1 dl1:1:32:256:l -cache:dl2 dl2:1:32:65536:l -cache:il1 il1:1:32:256:l -cache:il2 dl2 base_mergesort1444251979
	sim-bpred -bpred bimod -bpred:bimod 512 base_mergesort1444251979
	sim-bpred -bpred bimod -bpred:bimod 1024 base_mergesort1444251979
	sim-bpred -bpred bimod -bpred:bimod 2048 base_mergesort1444251979
	sim-bpred -bpred 2lev -bpred:2lev 1 512 10 1 base_mergesort1444251979
	sim-bpred -bpred 2lev -bpred:2lev 1 1024 10 1 base_mergesort1444251979
	sim-bpred -bpred 2lev -bpred:2lev 1 2048 10 1 base_mergesort1444251979
	sim-bpred -bpred 2lev -bpred:2lev 1 4096 10 1 base_mergesort1444251979
	sslittle-na-sstrix-gcc -Wall -O3 -funroll-loops -finline-functions  -DRANDOM_SIZE=4194304 -DSEED=0 -DSORT=base_mergesort base_mergesort1343329349.c simpleMain.c -o base_mergesort1444251979
	sim-cache -cache:dl1 dl1:256:32:1:l -cache:dl2 dl2:131072:32:1:l -cache:il1 il1:256:32:1:l -cache:il2 dl2 base_mergesort1444251979
	sim-cache -cache:dl1 dl1:256:32:1:l -cache:dl2 dl2:65536:32:1:l -cache:il1 il1:256:32:1:l -cache:il2 dl2 base_mergesort1444251979
	sim-cache -cache:dl1 dl1:1:32:256:l -cache:dl2 dl2:1:32:131072:l -cache:il1 il1:1:32:256:l -cache:il2 dl2 base_mergesort1444251979
	sim-cache -cache:dl1 dl1:1:32:256:l -cache:dl2 dl2:1:32:65536:l -cache:il1 il1:1:32:256:l -cache:il2 dl2 base_mergesort1444251979
	sim-bpred -bpred bimod -bpred:bimod 512 base_mergesort1444251979
	sim-bpred -bpred bimod -bpred:bimod 1024 base_mergesort1444251979
	sim-bpred -bpred bimod -bpred:bimod 2048 base_mergesort1444251979
	sim-bpred -bpred 2lev -bpred:2lev 1 512 10 1 base_mergesort1444251979
	sim-bpred -bpred 2lev -bpred:2lev 1 1024 10 1 base_mergesort1444251979
	sim-bpred -bpred 2lev -bpred:2lev 1 2048 10 1 base_mergesort1444251979
	sim-bpred -bpred 2lev -bpred:2lev 1 4096 10 1 base_mergesort1444251979
