Thu Mar 25 02:26:02 2004
Run as: "./simple -c  cache_heapsort"
-------------------------------------------------------------------------------------------------
sim-cache                                     4096 |         4096 |         4096 |         4096 |         8192 |         8192 |         8192 |         8192 |        16384 |        16384 |        16384 |        16384 |        32768 |        32768 |        32768 |        32768 |        65536 |        65536 |        65536 |        65536 |       131072 |       131072 |       131072 |       131072 |       262144 |       262144 |       262144 |       262144 |       524288 |       524288 |       524288 |       524288 |      1048576 |      1048576 |      1048576 |      1048576 |      2097152 |      2097152 |      2097152 |      2097152 |      4194304 |      4194304 |      4194304 |      4194304 |
-cache:dl1 dl1:256:32:1:l -cache:dl2 dl2:131072:32:1:l -cache:il1 il1:256:32:1:l -cache:il2 dl2
-cache:dl1 dl1:256:32:1:l -cache:dl2 dl2:65536:32:1:l -cache:il1 il1:256:32:1:l -cache:il2 dl2
-cache:dl1 dl1:1:32:256:l -cache:dl2 dl2:1:32:131072:l -cache:il1 il1:1:32:256:l -cache:il2 dl2
-cache:dl1 dl1:1:32:256:l -cache:dl2 dl2:1:32:65536:l -cache:il1 il1:1:32:256:l -cache:il2 dl2
-------------------------------------------------------------------------------------------------
sim_num_insn                               1159702 |      1159702 |      1159702 |      1159702 |      2470039 |      2470039 |      2470039 |      2470039 |      5275670 |      5275670 |      5275670 |      5275670 |     11089557 |     11089557 |     11089557 |     11089557 |     23455710 |     23455710 |     23455710 |     23455710 |     49748307 |     49748307 |     49748307 |     49748307 |    103953473 |    103953473 |    103953473 |    103953473 |    218253196 |    218253196 |    218253196 |    218253196 |    459459499 |    459459499 |    459459499 |    459459499 |    954645424 |    954645424 |    954645424 |    954645424 |   1992295916 |   1992295916 |   1992295916 |   1992295916 |
sim_num_refs                                345817 |       345817 |       345817 |       345817 |       729553 |       729553 |       729553 |       729553 |      1547339 |      1547339 |      1547339 |      1547339 |      3235918 |      3235918 |      3235918 |      3235918 |      6819285 |      6819285 |      6819285 |      6819285 |     14410461 |     14410461 |     14410461 |     14410461 |     30012345 |     30012345 |     30012345 |     30012345 |     62867107 |     62867107 |     62867107 |     62867107 |    132010887 |    132010887 |    132010887 |    132010887 |    273601086 |    273601086 |    273601086 |    273601086 |    570025332 |    570025332 |    570025332 |    570025332 |
sim_elapsed_time                                 1 |            1 |           20 |           10 |            1 |            1 |           32 |           16 |            3 |            3 |           54 |           29 |            7 |            6 |           99 |           51 |           13 |           13 |          184 |           93 |           28 |           29 |          338 |          162 |           60 |           59 |          586 |          236 |          126 |          125 |          824 |          307 |          276 |          277 |          978 |          458 |          550 |          548 |         1292 |          773 |         1150 |         1151 |         1964 |         1416 |
sim_inst_rate                         1159702.0000 | 1159702.0000 |   57985.1000 |  115970.2000 | 2470039.0000 | 2470039.0000 |   77188.7188 |  154377.4375 | 1758556.6667 | 1758556.6667 |   97697.5926 |  181919.6552 | 1584222.4286 | 1848259.5000 |  112015.7273 |  217442.2941 | 1804285.3846 | 1804285.3846 |  127476.6848 |  252211.9355 | 1776725.2500 | 1715458.8621 |  147184.3402 |  307088.3148 | 1732557.8833 | 1761923.2712 |  177395.0051 |  440480.8178 | 1732168.2222 | 1746025.5680 |  264870.3835 |  710922.4625 | 1664708.3297 | 1658698.5523 |  469794.9888 | 1003186.6790 | 1735718.9527 | 1742053.6934 |  738889.6471 | 1234987.6119 | 1732431.2313 | 1730926.0782 | 1014407.2892 | 1406988.6412 |
il1.accesses                               1159702 |      1159702 |      1159702 |      1159702 |      2470039 |      2470039 |      2470039 |      2470039 |      5275670 |      5275670 |      5275670 |      5275670 |     11089557 |     11089557 |     11089557 |     11089557 |     23455710 |     23455710 |     23455710 |     23455710 |     49748307 |     49748307 |     49748307 |     49748307 |    103953473 |    103953473 |    103953473 |    103953473 |    218253196 |    218253196 |    218253196 |    218253196 |    459459499 |    459459499 |    459459499 |    459459499 |    954645424 |    954645424 |    954645424 |    954645424 |   1992295916 |   1992295916 |   1992295916 |   1992295916 |
il1.hits                                   1159222 |      1159222 |      1159262 |      1159262 |      2469538 |      2469538 |      2469582 |      2469582 |      5275173 |      5275173 |      5275203 |      5275203 |     11089058 |     11089058 |     11089089 |     11089089 |     23455211 |     23455211 |     23455242 |     23455242 |     49747808 |     49747808 |     49747839 |     49747839 |    103952974 |    103952974 |    103953005 |    103953005 |    218252697 |    218252697 |    218252728 |    218252728 |    459458960 |    459458960 |    459458994 |    459458994 |    954644885 |    954644885 |    954644919 |    954644919 |   1992295377 |   1992295377 |   1992295411 |   1992295411 |
il1.misses                                     480 |          480 |          440 |          440 |          501 |          501 |          457 |          457 |          497 |          497 |          467 |          467 |          499 |          499 |          468 |          468 |          499 |          499 |          468 |          468 |          499 |          499 |          468 |          468 |          499 |          499 |          468 |          468 |          499 |          499 |          468 |          468 |          539 |          539 |          505 |          505 |          539 |          539 |          505 |          505 |          539 |          539 |          505 |          505 |
il1.replacements                               244 |          244 |          184 |          184 |          261 |          261 |          201 |          201 |          255 |          255 |          211 |          211 |          257 |          257 |          212 |          212 |          257 |          257 |          212 |          212 |          257 |          257 |          212 |          212 |          257 |          257 |          212 |          212 |          257 |          257 |          212 |          212 |          296 |          296 |          249 |          249 |          296 |          296 |          249 |          249 |          296 |          296 |          249 |          249 |
il1.writebacks                                   0 |            0 |            0 |            0 |            0 |            0 |            0 |            0 |            0 |            0 |            0 |            0 |            0 |            0 |            0 |            0 |            0 |            0 |            0 |            0 |            0 |            0 |            0 |            0 |            0 |            0 |            0 |            0 |            0 |            0 |            0 |            0 |            0 |            0 |            0 |            0 |            0 |            0 |            0 |            0 |            0 |            0 |            0 |            0 |
il1.invalidations                                0 |            0 |            0 |            0 |            0 |            0 |            0 |            0 |            0 |            0 |            0 |            0 |            0 |            0 |            0 |            0 |            0 |            0 |            0 |            0 |            0 |            0 |            0 |            0 |            0 |            0 |            0 |            0 |            0 |            0 |            0 |            0 |            0 |            0 |            0 |            0 |            0 |            0 |            0 |            0 |            0 |            0 |            0 |            0 |
il1.miss_rate                               0.0004 |       0.0004 |       0.0004 |       0.0004 |       0.0002 |       0.0002 |       0.0002 |       0.0002 |       0.0001 |       0.0001 |       0.0001 |       0.0001 |       0.0000 |       0.0000 |       0.0000 |       0.0000 |       0.0000 |       0.0000 |       0.0000 |       0.0000 |       0.0000 |       0.0000 |       0.0000 |       0.0000 |       0.0000 |       0.0000 |       0.0000 |       0.0000 |       0.0000 |       0.0000 |       0.0000 |       0.0000 |       0.0000 |       0.0000 |       0.0000 |       0.0000 |       0.0000 |       0.0000 |       0.0000 |       0.0000 |       0.0000 |       0.0000 |       0.0000 |       0.0000 |
il1.repl_rate                               0.0002 |       0.0002 |       0.0002 |       0.0002 |       0.0001 |       0.0001 |       0.0001 |       0.0001 |       0.0000 |       0.0000 |       0.0000 |       0.0000 |       0.0000 |       0.0000 |       0.0000 |       0.0000 |       0.0000 |       0.0000 |       0.0000 |       0.0000 |       0.0000 |       0.0000 |       0.0000 |       0.0000 |       0.0000 |       0.0000 |       0.0000 |       0.0000 |       0.0000 |       0.0000 |       0.0000 |       0.0000 |       0.0000 |       0.0000 |       0.0000 |       0.0000 |       0.0000 |       0.0000 |       0.0000 |       0.0000 |       0.0000 |       0.0000 |       0.0000 |       0.0000 |
il1.wb_rate                                 0.0000 |       0.0000 |       0.0000 |       0.0000 |       0.0000 |       0.0000 |       0.0000 |       0.0000 |       0.0000 |       0.0000 |       0.0000 |       0.0000 |       0.0000 |       0.0000 |       0.0000 |       0.0000 |       0.0000 |       0.0000 |       0.0000 |       0.0000 |       0.0000 |       0.0000 |       0.0000 |       0.0000 |       0.0000 |       0.0000 |       0.0000 |       0.0000 |       0.0000 |       0.0000 |       0.0000 |       0.0000 |       0.0000 |       0.0000 |       0.0000 |       0.0000 |       0.0000 |       0.0000 |       0.0000 |       0.0000 |       0.0000 |       0.0000 |       0.0000 |       0.0000 |
il1.inv_rate                                0.0000 |       0.0000 |       0.0000 |       0.0000 |       0.0000 |       0.0000 |       0.0000 |       0.0000 |       0.0000 |       0.0000 |       0.0000 |       0.0000 |       0.0000 |       0.0000 |       0.0000 |       0.0000 |       0.0000 |       0.0000 |       0.0000 |       0.0000 |       0.0000 |       0.0000 |       0.0000 |       0.0000 |       0.0000 |       0.0000 |       0.0000 |       0.0000 |       0.0000 |       0.0000 |       0.0000 |       0.0000 |       0.0000 |       0.0000 |       0.0000 |       0.0000 |       0.0000 |       0.0000 |       0.0000 |       0.0000 |       0.0000 |       0.0000 |       0.0000 |       0.0000 |
dl1.accesses                                345887 |       345887 |       345887 |       345887 |       729623 |       729623 |       729623 |       729623 |      1547409 |      1547409 |      1547409 |      1547409 |      3235988 |      3235988 |      3235988 |      3235988 |      6819355 |      6819355 |      6819355 |      6819355 |     14410531 |     14410531 |     14410531 |     14410531 |     30012415 |     30012415 |     30012415 |     30012415 |     62867177 |     62867177 |     62867177 |     62867177 |    132010957 |    132010957 |    132010957 |    132010957 |    273601156 |    273601156 |    273601156 |    273601156 |    570025402 |    570025402 |    570025402 |    570025402 |
dl1.hits                                    341163 |       341163 |       341929 |       341929 |       717440 |       717440 |       719402 |       719402 |      1517238 |      1517238 |      1520832 |      1520832 |      3161972 |      3161972 |      3170294 |      3170294 |      6644247 |      6644247 |      6662273 |      6662273 |     14010118 |     14010118 |     14045212 |     14045212 |     29100681 |     29100681 |     29179815 |     29179815 |     60832920 |     60832920 |     60997106 |     60997106 |    127543259 |    127543259 |    127878144 |    127878144 |    263827310 |    263827310 |    264536019 |    264536019 |    548866972 |    548866972 |    550332842 |    550332842 |
dl1.misses                                    4724 |         4724 |         3958 |         3958 |        12183 |        12183 |        10221 |        10221 |        30171 |        30171 |        26577 |        26577 |        74016 |        74016 |        65694 |        65694 |       175108 |       175108 |       157082 |       157082 |       400413 |       400413 |       365319 |       365319 |       911734 |       911734 |       832600 |       832600 |      2034257 |      2034257 |      1870071 |      1870071 |      4467698 |      4467698 |      4132813 |      4132813 |      9773846 |      9773846 |      9065137 |      9065137 |     21158430 |     21158430 |     19692560 |     19692560 |
dl1.replacements                              4468 |         4468 |         3702 |         3702 |        11927 |        11927 |         9965 |         9965 |        29915 |        29915 |        26321 |        26321 |        73760 |        73760 |        65438 |        65438 |       174852 |       174852 |       156826 |       156826 |       400157 |       400157 |       365063 |       365063 |       911478 |       911478 |       832344 |       832344 |      2034001 |      2034001 |      1869815 |      1869815 |      4467442 |      4467442 |      4132557 |      4132557 |      9773590 |      9773590 |      9064881 |      9064881 |     21158174 |     21158174 |     19692304 |     19692304 |
dl1.writebacks                                3832 |         3832 |         3130 |         3130 |        10527 |        10527 |         8730 |         8730 |        26938 |        26938 |        23694 |        23694 |        67361 |        67361 |        59854 |        59854 |       161778 |       161778 |       145596 |       145596 |       373223 |       373223 |       342098 |       342098 |       856417 |       856417 |       786108 |       786108 |      1922002 |      1922002 |      1777148 |      1777148 |      4238078 |      4238078 |      3946120 |      3946120 |      9312108 |      9312108 |      8692237 |      8692237 |     20224752 |     20224752 |     18947082 |     18947082 |
dl1.invalidations                                0 |            0 |            0 |            0 |            0 |            0 |            0 |            0 |            0 |            0 |            0 |            0 |            0 |            0 |            0 |            0 |            0 |            0 |            0 |            0 |            0 |            0 |            0 |            0 |            0 |            0 |            0 |            0 |            0 |            0 |            0 |            0 |            0 |            0 |            0 |            0 |            0 |            0 |            0 |            0 |            0 |            0 |            0 |            0 |
dl1.miss_rate                               0.0137 |       0.0137 |       0.0114 |       0.0114 |       0.0167 |       0.0167 |       0.0140 |       0.0140 |       0.0195 |       0.0195 |       0.0172 |       0.0172 |       0.0229 |       0.0229 |       0.0203 |       0.0203 |       0.0257 |       0.0257 |       0.0230 |       0.0230 |       0.0278 |       0.0278 |       0.0254 |       0.0254 |       0.0304 |       0.0304 |       0.0277 |       0.0277 |       0.0324 |       0.0324 |       0.0297 |       0.0297 |       0.0338 |       0.0338 |       0.0313 |       0.0313 |       0.0357 |       0.0357 |       0.0331 |       0.0331 |       0.0371 |       0.0371 |       0.0345 |       0.0345 |
dl1.repl_rate                               0.0129 |       0.0129 |       0.0107 |       0.0107 |       0.0163 |       0.0163 |       0.0137 |       0.0137 |       0.0193 |       0.0193 |       0.0170 |       0.0170 |       0.0228 |       0.0228 |       0.0202 |       0.0202 |       0.0256 |       0.0256 |       0.0230 |       0.0230 |       0.0278 |       0.0278 |       0.0253 |       0.0253 |       0.0304 |       0.0304 |       0.0277 |       0.0277 |       0.0324 |       0.0324 |       0.0297 |       0.0297 |       0.0338 |       0.0338 |       0.0313 |       0.0313 |       0.0357 |       0.0357 |       0.0331 |       0.0331 |       0.0371 |       0.0371 |       0.0345 |       0.0345 |
dl1.wb_rate                                 0.0111 |       0.0111 |       0.0090 |       0.0090 |       0.0144 |       0.0144 |       0.0120 |       0.0120 |       0.0174 |       0.0174 |       0.0153 |       0.0153 |       0.0208 |       0.0208 |       0.0185 |       0.0185 |       0.0237 |       0.0237 |       0.0214 |       0.0214 |       0.0259 |       0.0259 |       0.0237 |       0.0237 |       0.0285 |       0.0285 |       0.0262 |       0.0262 |       0.0306 |       0.0306 |       0.0283 |       0.0283 |       0.0321 |       0.0321 |       0.0299 |       0.0299 |       0.0340 |       0.0340 |       0.0318 |       0.0318 |       0.0355 |       0.0355 |       0.0332 |       0.0332 |
dl1.inv_rate                                0.0000 |       0.0000 |       0.0000 |       0.0000 |       0.0000 |       0.0000 |       0.0000 |       0.0000 |       0.0000 |       0.0000 |       0.0000 |       0.0000 |       0.0000 |       0.0000 |       0.0000 |       0.0000 |       0.0000 |       0.0000 |       0.0000 |       0.0000 |       0.0000 |       0.0000 |       0.0000 |       0.0000 |       0.0000 |       0.0000 |       0.0000 |       0.0000 |       0.0000 |       0.0000 |       0.0000 |       0.0000 |       0.0000 |       0.0000 |       0.0000 |       0.0000 |       0.0000 |       0.0000 |       0.0000 |       0.0000 |       0.0000 |       0.0000 |       0.0000 |       0.0000 |
dl2.accesses                                  9036 |         9036 |         7528 |         7528 |        23211 |        23211 |        19408 |        19408 |        57606 |        57606 |        50738 |        50738 |       141876 |       141876 |       126016 |       126016 |       337385 |       337385 |       303146 |       303146 |       774135 |       774135 |       707885 |       707885 |      1768650 |      1768650 |      1619176 |      1619176 |      3956758 |      3956758 |      3647687 |      3647687 |      8706315 |      8706315 |      8079438 |      8079438 |     19086493 |     19086493 |     17757879 |     17757879 |     41383721 |     41383721 |     38640147 |     38640147 |
dl2.hits                                      7111 |         7111 |         5655 |         5655 |        20242 |        20242 |        16520 |        16520 |        52583 |        52583 |        45796 |        45796 |       132755 |       132755 |       116977 |       116977 |       320070 |       320070 |       285915 |       285915 |       740438 |       740438 |       674270 |       674270 |      1702185 |      1699866 |      1552793 |      1528730 |      3822437 |      3600340 |      3473767 |      3322825 |      7991952 |      7719934 |      7429681 |      7177708 |     17113239 |     16353058 |     15954479 |     15242453 |     35918115 |     34395484 |     33610286 |     31977448 |
dl2.misses                                    1925 |         1925 |         1873 |         1873 |         2969 |         2969 |         2888 |         2888 |         5023 |         5023 |         4942 |         4942 |         9121 |         9121 |         9039 |         9039 |        17315 |        17315 |        17231 |        17231 |        33697 |        33697 |        33615 |        33615 |        66465 |        68784 |        66383 |        90446 |       134321 |       356418 |       173920 |       324862 |       714363 |       986381 |       649757 |       901730 |      1973254 |      2733435 |      1803400 |      2515426 |      5465606 |      6988237 |      5029861 |      6662699 |
dl2.replacements                               385 |          385 |            0 |            0 |          405 |          405 |            0 |            0 |          411 |          411 |            0 |            0 |          413 |          413 |            0 |            0 |          415 |          415 |            0 |            0 |          413 |          413 |            0 |            0 |          413 |         4279 |            0 |        24910 |         4280 |       290882 |        42848 |       259326 |       583291 |       920845 |       518685 |       836194 |      1842182 |      2667899 |      1672328 |      2449890 |      5334534 |      6922701 |      4898789 |      6597163 |
dl2.writebacks                                 198 |          198 |            0 |            0 |          216 |          216 |            0 |            0 |          218 |          218 |            0 |            0 |          220 |          220 |            0 |            0 |          220 |          220 |            0 |            0 |          220 |          220 |            0 |            0 |          220 |         4086 |            0 |        24164 |         4086 |       227139 |        42102 |       193032 |       455274 |       780311 |       386195 |       693846 |      1561249 |      2358397 |      1388083 |      2136323 |      4716605 |      6253629 |      4272428 |      5924040 |
dl2.invalidations                                0 |            0 |            0 |            0 |            0 |            0 |            0 |            0 |            0 |            0 |            0 |            0 |            0 |            0 |            0 |            0 |            0 |            0 |            0 |            0 |            0 |            0 |            0 |            0 |            0 |            0 |            0 |            0 |            0 |            0 |            0 |            0 |            0 |            0 |            0 |            0 |            0 |            0 |            0 |            0 |            0 |            0 |            0 |            0 |
dl2.miss_rate                               0.2130 |       0.2130 |       0.2488 |       0.2488 |       0.1279 |       0.1279 |       0.1488 |       0.1488 |       0.0872 |       0.0872 |       0.0974 |       0.0974 |       0.0643 |       0.0643 |       0.0717 |       0.0717 |       0.0513 |       0.0513 |       0.0568 |       0.0568 |       0.0435 |       0.0435 |       0.0475 |       0.0475 |       0.0376 |       0.0389 |       0.0410 |       0.0559 |       0.0339 |       0.0901 |       0.0477 |       0.0891 |       0.0821 |       0.1133 |       0.0804 |       0.1116 |       0.1034 |       0.1432 |       0.1016 |       0.1417 |       0.1321 |       0.1689 |       0.1302 |       0.1724 |
dl2.repl_rate                               0.0426 |       0.0426 |       0.0000 |       0.0000 |       0.0174 |       0.0174 |       0.0000 |       0.0000 |       0.0071 |       0.0071 |       0.0000 |       0.0000 |       0.0029 |       0.0029 |       0.0000 |       0.0000 |       0.0012 |       0.0012 |       0.0000 |       0.0000 |       0.0005 |       0.0005 |       0.0000 |       0.0000 |       0.0002 |       0.0024 |       0.0000 |       0.0154 |       0.0011 |       0.0735 |       0.0117 |       0.0711 |       0.0670 |       0.1058 |       0.0642 |       0.1035 |       0.0965 |       0.1398 |       0.0942 |       0.1380 |       0.1289 |       0.1673 |       0.1268 |       0.1707 |
dl2.wb_rate                                 0.0219 |       0.0219 |       0.0000 |       0.0000 |       0.0093 |       0.0093 |       0.0000 |       0.0000 |       0.0038 |       0.0038 |       0.0000 |       0.0000 |       0.0016 |       0.0016 |       0.0000 |       0.0000 |       0.0007 |       0.0007 |       0.0000 |       0.0000 |       0.0003 |       0.0003 |       0.0000 |       0.0000 |       0.0001 |       0.0023 |       0.0000 |       0.0149 |       0.0010 |       0.0574 |       0.0115 |       0.0529 |       0.0523 |       0.0896 |       0.0478 |       0.0859 |       0.0818 |       0.1236 |       0.0782 |       0.1203 |       0.1140 |       0.1511 |       0.1106 |       0.1533 |
dl2.inv_rate                                0.0000 |       0.0000 |       0.0000 |       0.0000 |       0.0000 |       0.0000 |       0.0000 |       0.0000 |       0.0000 |       0.0000 |       0.0000 |       0.0000 |       0.0000 |       0.0000 |       0.0000 |       0.0000 |       0.0000 |       0.0000 |       0.0000 |       0.0000 |       0.0000 |       0.0000 |       0.0000 |       0.0000 |       0.0000 |       0.0000 |       0.0000 |       0.0000 |       0.0000 |       0.0000 |       0.0000 |       0.0000 |       0.0000 |       0.0000 |       0.0000 |       0.0000 |       0.0000 |       0.0000 |       0.0000 |       0.0000 |       0.0000 |       0.0000 |       0.0000 |       0.0000 |
itlb.accesses                              1159702 |      1159702 |      1159702 |      1159702 |      2470039 |      2470039 |      2470039 |      2470039 |      5275670 |      5275670 |      5275670 |      5275670 |     11089557 |     11089557 |     11089557 |     11089557 |     23455710 |     23455710 |     23455710 |     23455710 |     49748307 |     49748307 |     49748307 |     49748307 |    103953473 |    103953473 |    103953473 |    103953473 |    218253196 |    218253196 |    218253196 |    218253196 |    459459499 |    459459499 |    459459499 |    459459499 |    954645424 |    954645424 |    954645424 |    954645424 |   1992295916 |   1992295916 |   1992295916 |   1992295916 |
itlb.hits                                  1159694 |      1159694 |      1159694 |      1159694 |      2470031 |      2470031 |      2470031 |      2470031 |      5275662 |      5275662 |      5275662 |      5275662 |     11089549 |     11089549 |     11089549 |     11089549 |     23455702 |     23455702 |     23455702 |     23455702 |     49748299 |     49748299 |     49748299 |     49748299 |    103953465 |    103953465 |    103953465 |    103953465 |    218253188 |    218253188 |    218253188 |    218253188 |    459459491 |    459459491 |    459459491 |    459459491 |    954645416 |    954645416 |    954645416 |    954645416 |   1992295908 |   1992295908 |   1992295908 |   1992295908 |
itlb.misses                                      8 |            8 |            8 |            8 |            8 |            8 |            8 |            8 |            8 |            8 |            8 |            8 |            8 |            8 |            8 |            8 |            8 |            8 |            8 |            8 |            8 |            8 |            8 |            8 |            8 |            8 |            8 |            8 |            8 |            8 |            8 |            8 |            8 |            8 |            8 |            8 |            8 |            8 |            8 |            8 |            8 |            8 |            8 |            8 |
itlb.replacements                                0 |            0 |            0 |            0 |            0 |            0 |            0 |            0 |            0 |            0 |            0 |            0 |            0 |            0 |            0 |            0 |            0 |            0 |            0 |            0 |            0 |            0 |            0 |            0 |            0 |            0 |            0 |            0 |            0 |            0 |            0 |            0 |            0 |            0 |            0 |            0 |            0 |            0 |            0 |            0 |            0 |            0 |            0 |            0 |
itlb.writebacks                                  0 |            0 |            0 |            0 |            0 |            0 |            0 |            0 |            0 |            0 |            0 |            0 |            0 |            0 |            0 |            0 |            0 |            0 |            0 |            0 |            0 |            0 |            0 |            0 |            0 |            0 |            0 |            0 |            0 |            0 |            0 |            0 |            0 |            0 |            0 |            0 |            0 |            0 |            0 |            0 |            0 |            0 |            0 |            0 |
itlb.invalidations                               0 |            0 |            0 |            0 |            0 |            0 |            0 |            0 |            0 |            0 |            0 |            0 |            0 |            0 |            0 |            0 |            0 |            0 |            0 |            0 |            0 |            0 |            0 |            0 |            0 |            0 |            0 |            0 |            0 |            0 |            0 |            0 |            0 |            0 |            0 |            0 |            0 |            0 |            0 |            0 |            0 |            0 |            0 |            0 |
itlb.miss_rate                              0.0000 |       0.0000 |       0.0000 |       0.0000 |       0.0000 |       0.0000 |       0.0000 |       0.0000 |       0.0000 |       0.0000 |       0.0000 |       0.0000 |       0.0000 |       0.0000 |       0.0000 |       0.0000 |       0.0000 |       0.0000 |       0.0000 |       0.0000 |       0.0000 |       0.0000 |       0.0000 |       0.0000 |       0.0000 |       0.0000 |       0.0000 |       0.0000 |       0.0000 |       0.0000 |       0.0000 |       0.0000 |       0.0000 |       0.0000 |       0.0000 |       0.0000 |       0.0000 |       0.0000 |       0.0000 |       0.0000 |       0.0000 |       0.0000 |       0.0000 |       0.0000 |
itlb.repl_rate                              0.0000 |       0.0000 |       0.0000 |       0.0000 |       0.0000 |       0.0000 |       0.0000 |       0.0000 |       0.0000 |       0.0000 |       0.0000 |       0.0000 |       0.0000 |       0.0000 |       0.0000 |       0.0000 |       0.0000 |       0.0000 |       0.0000 |       0.0000 |       0.0000 |       0.0000 |       0.0000 |       0.0000 |       0.0000 |       0.0000 |       0.0000 |       0.0000 |       0.0000 |       0.0000 |       0.0000 |       0.0000 |       0.0000 |       0.0000 |       0.0000 |       0.0000 |       0.0000 |       0.0000 |       0.0000 |       0.0000 |       0.0000 |       0.0000 |       0.0000 |       0.0000 |
itlb.wb_rate                                0.0000 |       0.0000 |       0.0000 |       0.0000 |       0.0000 |       0.0000 |       0.0000 |       0.0000 |       0.0000 |       0.0000 |       0.0000 |       0.0000 |       0.0000 |       0.0000 |       0.0000 |       0.0000 |       0.0000 |       0.0000 |       0.0000 |       0.0000 |       0.0000 |       0.0000 |       0.0000 |       0.0000 |       0.0000 |       0.0000 |       0.0000 |       0.0000 |       0.0000 |       0.0000 |       0.0000 |       0.0000 |       0.0000 |       0.0000 |       0.0000 |       0.0000 |       0.0000 |       0.0000 |       0.0000 |       0.0000 |       0.0000 |       0.0000 |       0.0000 |       0.0000 |
itlb.inv_rate                               0.0000 |       0.0000 |       0.0000 |       0.0000 |       0.0000 |       0.0000 |       0.0000 |       0.0000 |       0.0000 |       0.0000 |       0.0000 |       0.0000 |       0.0000 |       0.0000 |       0.0000 |       0.0000 |       0.0000 |       0.0000 |       0.0000 |       0.0000 |       0.0000 |       0.0000 |       0.0000 |       0.0000 |       0.0000 |       0.0000 |       0.0000 |       0.0000 |       0.0000 |       0.0000 |       0.0000 |       0.0000 |       0.0000 |       0.0000 |       0.0000 |       0.0000 |       0.0000 |       0.0000 |       0.0000 |       0.0000 |       0.0000 |       0.0000 |       0.0000 |       0.0000 |
dtlb.accesses                               345887 |       345887 |       345887 |       345887 |       729623 |       729623 |       729623 |       729623 |      1547409 |      1547409 |      1547409 |      1547409 |      3235988 |      3235988 |      3235988 |      3235988 |      6819355 |      6819355 |      6819355 |      6819355 |     14410531 |     14410531 |     14410531 |     14410531 |     30012415 |     30012415 |     30012415 |     30012415 |     62867177 |     62867177 |     62867177 |     62867177 |    132010957 |    132010957 |    132010957 |    132010957 |    273601156 |    273601156 |    273601156 |    273601156 |    570025402 |    570025402 |    570025402 |    570025402 |
dtlb.hits                                   345872 |       345872 |       345872 |       345872 |       729600 |       729600 |       729600 |       729600 |      1547370 |      1547370 |      1547370 |      1547370 |      3235917 |      3235917 |      3235917 |      3235917 |      6819210 |      6819210 |      6819210 |      6819210 |     14409749 |     14409749 |     14409749 |     14409749 |     29966289 |     29966289 |     29966289 |     29966289 |     62609519 |     62609519 |     62609519 |     62609519 |    131088029 |    131088029 |    131088029 |    131088029 |    270912586 |    270912586 |    270912586 |    270912586 |    562921511 |    562921511 |    562921511 |    562921511 |
dtlb.misses                                     15 |           15 |           15 |           15 |           23 |           23 |           23 |           23 |           39 |           39 |           39 |           39 |           71 |           71 |           71 |           71 |          145 |          145 |          145 |          145 |          782 |          782 |          782 |          782 |        46126 |        46126 |        46126 |        46126 |       257658 |       257658 |       257658 |       257658 |       922928 |       922928 |       922928 |       922928 |      2688570 |      2688570 |      2688570 |      2688570 |      7103891 |      7103891 |      7103891 |      7103891 |
dtlb.replacements                                0 |            0 |            0 |            0 |            0 |            0 |            0 |            0 |            0 |            0 |            0 |            0 |            0 |            0 |            0 |            0 |           17 |           17 |           17 |           17 |          654 |          654 |          654 |          654 |        45998 |        45998 |        45998 |        45998 |       257530 |       257530 |       257530 |       257530 |       922800 |       922800 |       922800 |       922800 |      2688442 |      2688442 |      2688442 |      2688442 |      7103763 |      7103763 |      7103763 |      7103763 |
dtlb.writebacks                                  0 |            0 |            0 |            0 |            0 |            0 |            0 |            0 |            0 |            0 |            0 |            0 |            0 |            0 |            0 |            0 |           15 |           15 |           15 |           15 |          529 |          529 |          529 |          529 |        44523 |        44523 |        44523 |        44523 |       247991 |       247991 |       247991 |       247991 |       890186 |       890186 |       890186 |       890186 |      2604757 |      2604757 |      2604757 |      2604757 |      6911906 |      6911906 |      6911906 |      6911906 |
dtlb.invalidations                               0 |            0 |            0 |            0 |            0 |            0 |            0 |            0 |            0 |            0 |            0 |            0 |            0 |            0 |            0 |            0 |            0 |            0 |            0 |            0 |            0 |            0 |            0 |            0 |            0 |            0 |            0 |            0 |            0 |            0 |            0 |            0 |            0 |            0 |            0 |            0 |            0 |            0 |            0 |            0 |            0 |            0 |            0 |            0 |
dtlb.miss_rate                              0.0000 |       0.0000 |       0.0000 |       0.0000 |       0.0000 |       0.0000 |       0.0000 |       0.0000 |       0.0000 |       0.0000 |       0.0000 |       0.0000 |       0.0000 |       0.0000 |       0.0000 |       0.0000 |       0.0000 |       0.0000 |       0.0000 |       0.0000 |       0.0001 |       0.0001 |       0.0001 |       0.0001 |       0.0015 |       0.0015 |       0.0015 |       0.0015 |       0.0041 |       0.0041 |       0.0041 |       0.0041 |       0.0070 |       0.0070 |       0.0070 |       0.0070 |       0.0098 |       0.0098 |       0.0098 |       0.0098 |       0.0125 |       0.0125 |       0.0125 |       0.0125 |
dtlb.repl_rate                              0.0000 |       0.0000 |       0.0000 |       0.0000 |       0.0000 |       0.0000 |       0.0000 |       0.0000 |       0.0000 |       0.0000 |       0.0000 |       0.0000 |       0.0000 |       0.0000 |       0.0000 |       0.0000 |       0.0000 |       0.0000 |       0.0000 |       0.0000 |       0.0000 |       0.0000 |       0.0000 |       0.0000 |       0.0015 |       0.0015 |       0.0015 |       0.0015 |       0.0041 |       0.0041 |       0.0041 |       0.0041 |       0.0070 |       0.0070 |       0.0070 |       0.0070 |       0.0098 |       0.0098 |       0.0098 |       0.0098 |       0.0125 |       0.0125 |       0.0125 |       0.0125 |
dtlb.wb_rate                                0.0000 |       0.0000 |       0.0000 |       0.0000 |       0.0000 |       0.0000 |       0.0000 |       0.0000 |       0.0000 |       0.0000 |       0.0000 |       0.0000 |       0.0000 |       0.0000 |       0.0000 |       0.0000 |       0.0000 |       0.0000 |       0.0000 |       0.0000 |       0.0000 |       0.0000 |       0.0000 |       0.0000 |       0.0015 |       0.0015 |       0.0015 |       0.0015 |       0.0039 |       0.0039 |       0.0039 |       0.0039 |       0.0067 |       0.0067 |       0.0067 |       0.0067 |       0.0095 |       0.0095 |       0.0095 |       0.0095 |       0.0121 |       0.0121 |       0.0121 |       0.0121 |
dtlb.inv_rate                               0.0000 |       0.0000 |       0.0000 |       0.0000 |       0.0000 |       0.0000 |       0.0000 |       0.0000 |       0.0000 |       0.0000 |       0.0000 |       0.0000 |       0.0000 |       0.0000 |       0.0000 |       0.0000 |       0.0000 |       0.0000 |       0.0000 |       0.0000 |       0.0000 |       0.0000 |       0.0000 |       0.0000 |       0.0000 |       0.0000 |       0.0000 |       0.0000 |       0.0000 |       0.0000 |       0.0000 |       0.0000 |       0.0000 |       0.0000 |       0.0000 |       0.0000 |       0.0000 |       0.0000 |       0.0000 |       0.0000 |       0.0000 |       0.0000 |       0.0000 |       0.0000 |
ld_text_base                            0x00400000 |   0x00400000 |   0x00400000 |   0x00400000 |   0x00400000 |   0x00400000 |   0x00400000 |   0x00400000 |   0x00400000 |   0x00400000 |   0x00400000 |   0x00400000 |   0x00400000 |   0x00400000 |   0x00400000 |   0x00400000 |   0x00400000 |   0x00400000 |   0x00400000 |   0x00400000 |   0x00400000 |   0x00400000 |   0x00400000 |   0x00400000 |   0x00400000 |   0x00400000 |   0x00400000 |   0x00400000 |   0x00400000 |   0x00400000 |   0x00400000 |   0x00400000 |   0x00400000 |   0x00400000 |   0x00400000 |   0x00400000 |   0x00400000 |   0x00400000 |   0x00400000 |   0x00400000 |   0x00400000 |   0x00400000 |   0x00400000 |   0x00400000 |
ld_text_size                                 29360 |        29360 |        29360 |        29360 |        29392 |        29392 |        29392 |        29392 |        29408 |        29408 |        29408 |        29408 |        29440 |        29440 |        29440 |        29440 |        29440 |        29440 |        29440 |        29440 |        29440 |        29440 |        29440 |        29440 |        29440 |        29440 |        29440 |        29440 |        29440 |        29440 |        29440 |        29440 |        29440 |        29440 |        29440 |        29440 |        29440 |        29440 |        29440 |        29440 |        29440 |        29440 |        29440 |        29440 |
ld_data_base                            0x10000000 |   0x10000000 |   0x10000000 |   0x10000000 |   0x10000000 |   0x10000000 |   0x10000000 |   0x10000000 |   0x10000000 |   0x10000000 |   0x10000000 |   0x10000000 |   0x10000000 |   0x10000000 |   0x10000000 |   0x10000000 |   0x10000000 |   0x10000000 |   0x10000000 |   0x10000000 |   0x10000000 |   0x10000000 |   0x10000000 |   0x10000000 |   0x10000000 |   0x10000000 |   0x10000000 |   0x10000000 |   0x10000000 |   0x10000000 |   0x10000000 |   0x10000000 |   0x10000000 |   0x10000000 |   0x10000000 |   0x10000000 |   0x10000000 |   0x10000000 |   0x10000000 |   0x10000000 |   0x10000000 |   0x10000000 |   0x10000000 |   0x10000000 |
ld_data_size                                  4096 |         4096 |         4096 |         4096 |         4096 |         4096 |         4096 |         4096 |         4096 |         4096 |         4096 |         4096 |         4096 |         4096 |         4096 |         4096 |         4096 |         4096 |         4096 |         4096 |         4096 |         4096 |         4096 |         4096 |         4096 |         4096 |         4096 |         4096 |         4096 |         4096 |         4096 |         4096 |         4096 |         4096 |         4096 |         4096 |         4096 |         4096 |         4096 |         4096 |         4096 |         4096 |         4096 |         4096 |
ld_stack_base                           0x7fffc000 |   0x7fffc000 |   0x7fffc000 |   0x7fffc000 |   0x7fffc000 |   0x7fffc000 |   0x7fffc000 |   0x7fffc000 |   0x7fffc000 |   0x7fffc000 |   0x7fffc000 |   0x7fffc000 |   0x7fffc000 |   0x7fffc000 |   0x7fffc000 |   0x7fffc000 |   0x7fffc000 |   0x7fffc000 |   0x7fffc000 |   0x7fffc000 |   0x7fffc000 |   0x7fffc000 |   0x7fffc000 |   0x7fffc000 |   0x7fffc000 |   0x7fffc000 |   0x7fffc000 |   0x7fffc000 |   0x7fffc000 |   0x7fffc000 |   0x7fffc000 |   0x7fffc000 |   0x7fffc000 |   0x7fffc000 |   0x7fffc000 |   0x7fffc000 |   0x7fffc000 |   0x7fffc000 |   0x7fffc000 |   0x7fffc000 |   0x7fffc000 |   0x7fffc000 |   0x7fffc000 |   0x7fffc000 |
ld_stack_size                                16384 |        16384 |        16384 |        16384 |        16384 |        16384 |        16384 |        16384 |        16384 |        16384 |        16384 |        16384 |        16384 |        16384 |        16384 |        16384 |        16384 |        16384 |        16384 |        16384 |        16384 |        16384 |        16384 |        16384 |        16384 |        16384 |        16384 |        16384 |        16384 |        16384 |        16384 |        16384 |        16384 |        16384 |        16384 |        16384 |        16384 |        16384 |        16384 |        16384 |        16384 |        16384 |        16384 |        16384 |
ld_prog_entry                           0x00400140 |   0x00400140 |   0x00400140 |   0x00400140 |   0x00400140 |   0x00400140 |   0x00400140 |   0x00400140 |   0x00400140 |   0x00400140 |   0x00400140 |   0x00400140 |   0x00400140 |   0x00400140 |   0x00400140 |   0x00400140 |   0x00400140 |   0x00400140 |   0x00400140 |   0x00400140 |   0x00400140 |   0x00400140 |   0x00400140 |   0x00400140 |   0x00400140 |   0x00400140 |   0x00400140 |   0x00400140 |   0x00400140 |   0x00400140 |   0x00400140 |   0x00400140 |   0x00400140 |   0x00400140 |   0x00400140 |   0x00400140 |   0x00400140 |   0x00400140 |   0x00400140 |   0x00400140 |   0x00400140 |   0x00400140 |   0x00400140 |   0x00400140 |
ld_environ_base                         0x7fff8000 |   0x7fff8000 |   0x7fff8000 |   0x7fff8000 |   0x7fff8000 |   0x7fff8000 |   0x7fff8000 |   0x7fff8000 |   0x7fff8000 |   0x7fff8000 |   0x7fff8000 |   0x7fff8000 |   0x7fff8000 |   0x7fff8000 |   0x7fff8000 |   0x7fff8000 |   0x7fff8000 |   0x7fff8000 |   0x7fff8000 |   0x7fff8000 |   0x7fff8000 |   0x7fff8000 |   0x7fff8000 |   0x7fff8000 |   0x7fff8000 |   0x7fff8000 |   0x7fff8000 |   0x7fff8000 |   0x7fff8000 |   0x7fff8000 |   0x7fff8000 |   0x7fff8000 |   0x7fff8000 |   0x7fff8000 |   0x7fff8000 |   0x7fff8000 |   0x7fff8000 |   0x7fff8000 |   0x7fff8000 |   0x7fff8000 |   0x7fff8000 |   0x7fff8000 |   0x7fff8000 |   0x7fff8000 |
ld_target_big_endian                             0 |            0 |            0 |            0 |            0 |            0 |            0 |            0 |            0 |            0 |            0 |            0 |            0 |            0 |            0 |            0 |            0 |            0 |            0 |            0 |            0 |            0 |            0 |            0 |            0 |            0 |            0 |            0 |            0 |            0 |            0 |            0 |            0 |            0 |            0 |            0 |            0 |            0 |            0 |            0 |            0 |            0 |            0 |            0 |
mem.page_count                                  23 |           23 |           23 |           23 |           31 |           31 |           31 |           31 |           47 |           47 |           47 |           47 |           79 |           79 |           79 |           79 |          143 |          143 |          143 |          143 |          271 |          271 |          271 |          271 |          527 |          527 |          527 |          527 |         1039 |         1039 |         1039 |         1039 |         2069 |         2069 |         2069 |         2069 |         4123 |         4123 |         4123 |         4123 |         8231 |         8231 |         8231 |         8231 |
mem.page_mem                                   92k |          92k |          92k |          92k |         124k |         124k |         124k |         124k |         188k |         188k |         188k |         188k |         316k |         316k |         316k |         316k |         572k |         572k |         572k |         572k |        1084k |        1084k |        1084k |        1084k |        2108k |        2108k |        2108k |        2108k |        4156k |        4156k |        4156k |        4156k |        8276k |        8276k |        8276k |        8276k |       16492k |       16492k |       16492k |       16492k |       32924k |       32924k |       32924k |       32924k |
mem.ptab_misses                                 23 |           23 |           23 |           23 |           31 |           31 |           31 |           31 |           47 |           47 |           47 |           47 |           79 |           79 |           79 |           79 |          143 |          143 |          143 |          143 |          271 |          271 |          271 |          271 |          527 |          527 |          527 |          527 |         1039 |         1039 |         1039 |         1039 |        11015 |        11015 |        11015 |        11015 |        34877 |        34877 |        34877 |        34877 |        62693 |        62693 |        62693 |        62693 |
mem.ptab_accesses                          5511950 |      5511950 |      5511950 |      5511950 |     11520962 |     11520962 |     11520962 |     11520962 |     24379154 |     24379154 |     24379154 |     24379154 |     51012052 |     51012052 |     51012052 |     51012052 |    107643398 |    107643398 |    107643398 |    107643398 |    227996138 |    227996138 |    227996138 |    227996138 |    476020570 |    476020570 |    476020570 |    476020570 |    998928986 |    998928986 |    998928986 |    998928986 |   2102041758 |   2102041758 |   2102041758 |   2102041758 |   4365965856 |   4365965856 |   4365965856 |   4365965856 |   9109416316 |   9109416316 |   9109416316 |   9109416316 |
mem.ptab_miss_rate                          0.0000 |       0.0000 |       0.0000 |       0.0000 |       0.0000 |       0.0000 |       0.0000 |       0.0000 |       0.0000 |       0.0000 |       0.0000 |       0.0000 |       0.0000 |       0.0000 |       0.0000 |       0.0000 |       0.0000 |       0.0000 |       0.0000 |       0.0000 |       0.0000 |       0.0000 |       0.0000 |       0.0000 |       0.0000 |       0.0000 |       0.0000 |       0.0000 |       0.0000 |       0.0000 |       0.0000 |       0.0000 |       0.0000 |       0.0000 |       0.0000 |       0.0000 |       0.0000 |       0.0000 |       0.0000 |       0.0000 |       0.0000 |       0.0000 |       0.0000 |       0.0000 |
-------------------------------------------------------------------------------------------------
sim-bpred                                     4096 |         4096 |         4096 |         4096 |         4096 |         4096 |         4096 |         8192 |         8192 |         8192 |         8192 |         8192 |         8192 |         8192 |        16384 |        16384 |        16384 |        16384 |        16384 |        16384 |        16384 |        32768 |        32768 |        32768 |        32768 |        32768 |        32768 |        32768 |        65536 |        65536 |        65536 |        65536 |        65536 |        65536 |        65536 |       131072 |       131072 |       131072 |       131072 |       131072 |       131072 |       131072 |       262144 |       262144 |       262144 |       262144 |       262144 |       262144 |       262144 |       524288 |       524288 |       524288 |       524288 |       524288 |       524288 |       524288 |      1048576 |      1048576 |      1048576 |      1048576 |      1048576 |      1048576 |      1048576 |      2097152 |      2097152 |      2097152 |      2097152 |      2097152 |      2097152 |      2097152 |      4194304 |      4194304 |      4194304 |      4194304 |      4194304 |      4194304 |      4194304 |
-bpred bimod -bpred:bimod 512
-bpred bimod -bpred:bimod 1024
-bpred bimod -bpred:bimod 2048
-bpred 2lev -bpred:2lev 1 512 10 1
-bpred 2lev -bpred:2lev 1 1024 10 1
-bpred 2lev -bpred:2lev 1 2048 10 1
-bpred 2lev -bpred:2lev 1 4096 10 1
-------------------------------------------------------------------------------------------------
sim_num_insn                               1159702 |      1159702 |      1159702 |      1159702 |      1159702 |      1159702 |      1159702 |      2470039 |      2470039 |      2470039 |      2470039 |      2470039 |      2470039 |      2470039 |      5275670 |      5275670 |      5275670 |      5275670 |      5275670 |      5275670 |      5275670 |     11089557 |     11089557 |     11089557 |     11089557 |     11089557 |     11089557 |     11089557 |     23455710 |     23455710 |     23455710 |     23455710 |     23455710 |     23455710 |     23455710 |     49748307 |     49748307 |     49748307 |     49748307 |     49748307 |     49748307 |     49748307 |    103953473 |    103953473 |    103953473 |    103953473 |    103953473 |    103953473 |    103953473 |    218253196 |    218253196 |    218253196 |    218253196 |    218253196 |    218253196 |    218253196 |    459459499 |    459459499 |    459459499 |    459459499 |    459459499 |    459459499 |    459459499 |    954645424 |    954645424 |    954645424 |    954645424 |    954645424 |    954645424 |    954645424 |   1992295916 |   1992295916 |   1992295916 |   1992295916 |   1992295916 |   1992295916 |   1992295916 |
sim_num_refs                                345817 |       345817 |       345817 |       345817 |       345817 |       345817 |       345817 |       729553 |       729553 |       729553 |       729553 |       729553 |       729553 |       729553 |      1547339 |      1547339 |      1547339 |      1547339 |      1547339 |      1547339 |      1547339 |      3235918 |      3235918 |      3235918 |      3235918 |      3235918 |      3235918 |      3235918 |      6819285 |      6819285 |      6819285 |      6819285 |      6819285 |      6819285 |      6819285 |     14410461 |     14410461 |     14410461 |     14410461 |     14410461 |     14410461 |     14410461 |     30012345 |     30012345 |     30012345 |     30012345 |     30012345 |     30012345 |     30012345 |     62867107 |     62867107 |     62867107 |     62867107 |     62867107 |     62867107 |     62867107 |    132010887 |    132010887 |    132010887 |    132010887 |    132010887 |    132010887 |    132010887 |    273601086 |    273601086 |    273601086 |    273601086 |    273601086 |    273601086 |    273601086 |    570025332 |    570025332 |    570025332 |    570025332 |    570025332 |    570025332 |    570025332 |
sim_elapsed_time                                 1 |            1 |            1 |            1 |            1 |            1 |            1 |            1 |            1 |            1 |            1 |            1 |            1 |            1 |            1 |            1 |            2 |            1 |            1 |            2 |            1 |            3 |            2 |            3 |            3 |            3 |            3 |            3 |            6 |            6 |            6 |            6 |            6 |            6 |            6 |           13 |           13 |           12 |           13 |           13 |           13 |           14 |           27 |           27 |           26 |           27 |           27 |           28 |           27 |           56 |           56 |           56 |           57 |           57 |           57 |           58 |          119 |          118 |          119 |          120 |          122 |          121 |          122 |          245 |          244 |          245 |          249 |          250 |          251 |          253 |          521 |          521 |          514 |          529 |          529 |          530 |          529 |
sim_inst_rate                         1159702.0000 | 1159702.0000 | 1159702.0000 | 1159702.0000 | 1159702.0000 | 1159702.0000 | 1159702.0000 | 2470039.0000 | 2470039.0000 | 2470039.0000 | 2470039.0000 | 2470039.0000 | 2470039.0000 | 2470039.0000 | 5275670.0000 | 5275670.0000 | 2637835.0000 | 5275670.0000 | 5275670.0000 | 2637835.0000 | 5275670.0000 | 3696519.0000 | 5544778.5000 | 3696519.0000 | 3696519.0000 | 3696519.0000 | 3696519.0000 | 3696519.0000 | 3909285.0000 | 3909285.0000 | 3909285.0000 | 3909285.0000 | 3909285.0000 | 3909285.0000 | 3909285.0000 | 3826792.8462 | 3826792.8462 | 4145692.2500 | 3826792.8462 | 3826792.8462 | 3826792.8462 | 3553450.5000 | 3850128.6296 | 3850128.6296 | 3998210.5000 | 3850128.6296 | 3850128.6296 | 3712624.0357 | 3850128.6296 | 3897378.5000 | 3897378.5000 | 3897378.5000 | 3829003.4386 | 3829003.4386 | 3829003.4386 | 3762986.1379 | 3861004.1933 | 3893724.5678 | 3861004.1933 | 3828829.1583 | 3766061.4672 | 3797185.9421 | 3766061.4672 | 3896511.9347 | 3912481.2459 | 3896511.9347 | 3833917.3655 | 3818581.6960 | 3803368.2231 | 3773302.0711 | 3823984.4837 | 3823984.4837 | 3876062.0934 | 3766154.8507 | 3766154.8507 | 3759048.8981 | 3766154.8507 |
sim_num_branches                            192616 |       192616 |       192616 |       192616 |       192616 |       192616 |       192616 |       408507 |       408507 |       408507 |       408507 |       408507 |       408507 |       408507 |       868351 |       868351 |       868351 |       868351 |       868351 |       868351 |       868351 |      1817730 |      1817730 |      1817730 |      1817730 |      1817730 |      1817730 |      1817730 |      3832475 |      3832475 |      3832475 |      3832475 |      3832475 |      3832475 |      3832475 |      8101278 |      8101278 |      8101278 |      8101278 |      8101278 |      8101278 |      8101278 |     16874638 |     16874638 |     16874638 |     16874638 |     16874638 |     16874638 |     16874638 |     35350456 |     35350456 |     35350456 |     35350456 |     35350456 |     35350456 |     35350456 |     74230449 |     74230449 |     74230449 |     74230449 |     74230449 |     74230449 |     74230449 |    153853655 |    153853655 |    153853655 |    153853655 |    153853655 |    153853655 |    153853655 |    320549522 |    320549522 |    320549522 |    320549522 |    320549522 |    320549522 |    320549522 |
sim_IPB                                     6.0208 |       6.0208 |       6.0208 |       6.0208 |       6.0208 |       6.0208 |       6.0208 |       6.0465 |       6.0465 |       6.0465 |       6.0465 |       6.0465 |       6.0465 |       6.0465 |       6.0755 |       6.0755 |       6.0755 |       6.0755 |       6.0755 |       6.0755 |       6.0755 |       6.1008 |       6.1008 |       6.1008 |       6.1008 |       6.1008 |       6.1008 |       6.1008 |       6.1203 |       6.1203 |       6.1203 |       6.1203 |       6.1203 |       6.1203 |       6.1203 |       6.1408 |       6.1408 |       6.1408 |       6.1408 |       6.1408 |       6.1408 |       6.1408 |       6.1603 |       6.1603 |       6.1603 |       6.1603 |       6.1603 |       6.1603 |       6.1603 |       6.1740 |       6.1740 |       6.1740 |       6.1740 |       6.1740 |       6.1740 |       6.1740 |       6.1896 |       6.1896 |       6.1896 |       6.1896 |       6.1896 |       6.1896 |       6.1896 |       6.2049 |       6.2049 |       6.2049 |       6.2049 |       6.2049 |       6.2049 |       6.2049 |       6.2153 |       6.2153 |       6.2153 |       6.2153 |       6.2153 |       6.2153 |       6.2153 |
bpred_bimod.lookups                         192616 |       192616 |       192616 |xxxxxxxxxxxxx |xxxxxxxxxxxxx |xxxxxxxxxxxxx |xxxxxxxxxxxxx |       408507 |       408507 |       408507 |xxxxxxxxxxxxx |xxxxxxxxxxxxx |xxxxxxxxxxxxx |xxxxxxxxxxxxx |       868351 |       868351 |       868351 |xxxxxxxxxxxxx |xxxxxxxxxxxxx |xxxxxxxxxxxxx |xxxxxxxxxxxxx |      1817730 |      1817730 |      1817730 |xxxxxxxxxxxxx |xxxxxxxxxxxxx |xxxxxxxxxxxxx |xxxxxxxxxxxxx |      3832475 |      3832475 |      3832475 |xxxxxxxxxxxxx |xxxxxxxxxxxxx |xxxxxxxxxxxxx |xxxxxxxxxxxxx |      8101278 |      8101278 |      8101278 |xxxxxxxxxxxxx |xxxxxxxxxxxxx |xxxxxxxxxxxxx |xxxxxxxxxxxxx |     16874638 |     16874638 |     16874638 |xxxxxxxxxxxxx |xxxxxxxxxxxxx |xxxxxxxxxxxxx |xxxxxxxxxxxxx |     35350456 |     35350456 |     35350456 |xxxxxxxxxxxxx |xxxxxxxxxxxxx |xxxxxxxxxxxxx |xxxxxxxxxxxxx |     74230449 |     74230449 |     74230449 |xxxxxxxxxxxxx |xxxxxxxxxxxxx |xxxxxxxxxxxxx |xxxxxxxxxxxxx |    153853655 |    153853655 |    153853655 |xxxxxxxxxxxxx |xxxxxxxxxxxxx |xxxxxxxxxxxxx |xxxxxxxxxxxxx |    320549522 |    320549522 |    320549522 |
bpred_bimod.updates                         192616 |       192616 |       192616 |xxxxxxxxxxxxx |xxxxxxxxxxxxx |xxxxxxxxxxxxx |xxxxxxxxxxxxx |       408507 |       408507 |       408507 |xxxxxxxxxxxxx |xxxxxxxxxxxxx |xxxxxxxxxxxxx |xxxxxxxxxxxxx |       868351 |       868351 |       868351 |xxxxxxxxxxxxx |xxxxxxxxxxxxx |xxxxxxxxxxxxx |xxxxxxxxxxxxx |      1817730 |      1817730 |      1817730 |xxxxxxxxxxxxx |xxxxxxxxxxxxx |xxxxxxxxxxxxx |xxxxxxxxxxxxx |      3832475 |      3832475 |      3832475 |xxxxxxxxxxxxx |xxxxxxxxxxxxx |xxxxxxxxxxxxx |xxxxxxxxxxxxx |      8101278 |      8101278 |      8101278 |xxxxxxxxxxxxx |xxxxxxxxxxxxx |xxxxxxxxxxxxx |xxxxxxxxxxxxx |     16874638 |     16874638 |     16874638 |xxxxxxxxxxxxx |xxxxxxxxxxxxx |xxxxxxxxxxxxx |xxxxxxxxxxxxx |     35350456 |     35350456 |     35350456 |xxxxxxxxxxxxx |xxxxxxxxxxxxx |xxxxxxxxxxxxx |xxxxxxxxxxxxx |     74230449 |     74230449 |     74230449 |xxxxxxxxxxxxx |xxxxxxxxxxxxx |xxxxxxxxxxxxx |xxxxxxxxxxxxx |    153853655 |    153853655 |    153853655 |xxxxxxxxxxxxx |xxxxxxxxxxxxx |xxxxxxxxxxxxx |xxxxxxxxxxxxx |    320549522 |    320549522 |    320549522 |
bpred_bimod.addr_hits                       161353 |       161359 |       161363 |xxxxxxxxxxxxx |xxxxxxxxxxxxx |xxxxxxxxxxxxx |xxxxxxxxxxxxx |       340954 |       340963 |       340964 |xxxxxxxxxxxxx |xxxxxxxxxxxxx |xxxxxxxxxxxxx |xxxxxxxxxxxxx |       724252 |       724258 |       724259 |xxxxxxxxxxxxx |xxxxxxxxxxxxx |xxxxxxxxxxxxx |xxxxxxxxxxxxx |      1504072 |      1504078 |      1504084 |xxxxxxxxxxxxx |xxxxxxxxxxxxx |xxxxxxxxxxxxx |xxxxxxxxxxxxx |      3163080 |      3163086 |      3163091 |xxxxxxxxxxxxx |xxxxxxxxxxxxx |xxxxxxxxxxxxx |xxxxxxxxxxxxx |      6691899 |      6691906 |      6691912 |xxxxxxxxxxxxx |xxxxxxxxxxxxx |xxxxxxxxxxxxx |xxxxxxxxxxxxx |     13846179 |     13846185 |     13846191 |xxxxxxxxxxxxx |xxxxxxxxxxxxx |xxxxxxxxxxxxx |xxxxxxxxxxxxx |     28969575 |     28969581 |     28969585 |xxxxxxxxxxxxx |xxxxxxxxxxxxx |xxxxxxxxxxxxx |xxxxxxxxxxxxx |     60902475 |     60902481 |     60902486 |xxxxxxxxxxxxx |xxxxxxxxxxxxx |xxxxxxxxxxxxx |xxxxxxxxxxxxx |    125517635 |    125517641 |    125517646 |xxxxxxxxxxxxx |xxxxxxxxxxxxx |xxxxxxxxxxxxx |xxxxxxxxxxxxx |    261247338 |    261247344 |    261247347 |
bpred_bimod.dir_hits                        161488 |       161492 |       161497 |xxxxxxxxxxxxx |xxxxxxxxxxxxx |xxxxxxxxxxxxx |xxxxxxxxxxxxx |       341097 |       341103 |       341103 |xxxxxxxxxxxxx |xxxxxxxxxxxxx |xxxxxxxxxxxxx |xxxxxxxxxxxxx |       724393 |       724397 |       724398 |xxxxxxxxxxxxx |xxxxxxxxxxxxx |xxxxxxxxxxxxx |xxxxxxxxxxxxx |      1504213 |      1504217 |      1504223 |xxxxxxxxxxxxx |xxxxxxxxxxxxx |xxxxxxxxxxxxx |xxxxxxxxxxxxx |      3163222 |      3163226 |      3163231 |xxxxxxxxxxxxx |xxxxxxxxxxxxx |xxxxxxxxxxxxx |xxxxxxxxxxxxx |      6692040 |      6692045 |      6692051 |xxxxxxxxxxxxx |xxxxxxxxxxxxx |xxxxxxxxxxxxx |xxxxxxxxxxxxx |     13846318 |     13846323 |     13846329 |xxxxxxxxxxxxx |xxxxxxxxxxxxx |xxxxxxxxxxxxx |xxxxxxxxxxxxx |     28969715 |     28969720 |     28969724 |xxxxxxxxxxxxx |xxxxxxxxxxxxx |xxxxxxxxxxxxx |xxxxxxxxxxxxx |     60902625 |     60902630 |     60902635 |xxxxxxxxxxxxx |xxxxxxxxxxxxx |xxxxxxxxxxxxx |xxxxxxxxxxxxx |    125517784 |    125517790 |    125517795 |xxxxxxxxxxxxx |xxxxxxxxxxxxx |xxxxxxxxxxxxx |xxxxxxxxxxxxx |    261247489 |    261247494 |    261247497 |
bpred_bimod.misses                           31128 |        31124 |        31119 |xxxxxxxxxxxxx |xxxxxxxxxxxxx |xxxxxxxxxxxxx |xxxxxxxxxxxxx |        67410 |        67404 |        67404 |xxxxxxxxxxxxx |xxxxxxxxxxxxx |xxxxxxxxxxxxx |xxxxxxxxxxxxx |       143958 |       143954 |       143953 |xxxxxxxxxxxxx |xxxxxxxxxxxxx |xxxxxxxxxxxxx |xxxxxxxxxxxxx |       313517 |       313513 |       313507 |xxxxxxxxxxxxx |xxxxxxxxxxxxx |xxxxxxxxxxxxx |xxxxxxxxxxxxx |       669253 |       669249 |       669244 |xxxxxxxxxxxxx |xxxxxxxxxxxxx |xxxxxxxxxxxxx |xxxxxxxxxxxxx |      1409238 |      1409233 |      1409227 |xxxxxxxxxxxxx |xxxxxxxxxxxxx |xxxxxxxxxxxxx |xxxxxxxxxxxxx |      3028320 |      3028315 |      3028309 |xxxxxxxxxxxxx |xxxxxxxxxxxxx |xxxxxxxxxxxxx |xxxxxxxxxxxxx |      6380741 |      6380736 |      6380732 |xxxxxxxxxxxxx |xxxxxxxxxxxxx |xxxxxxxxxxxxx |xxxxxxxxxxxxx |     13327824 |     13327819 |     13327814 |xxxxxxxxxxxxx |xxxxxxxxxxxxx |xxxxxxxxxxxxx |xxxxxxxxxxxxx |     28335871 |     28335865 |     28335860 |xxxxxxxxxxxxx |xxxxxxxxxxxxx |xxxxxxxxxxxxx |xxxxxxxxxxxxx |     59302033 |     59302028 |     59302025 |
bpred_bimod.jr_hits                          12653 |        12653 |        12653 |xxxxxxxxxxxxx |xxxxxxxxxxxxx |xxxxxxxxxxxxx |xxxxxxxxxxxxx |        24949 |        24949 |        24949 |xxxxxxxxxxxxx |xxxxxxxxxxxxx |xxxxxxxxxxxxx |xxxxxxxxxxxxx |        49525 |        49525 |        49525 |xxxxxxxxxxxxx |xxxxxxxxxxxxx |xxxxxxxxxxxxx |xxxxxxxxxxxxx |        98677 |        98677 |        98677 |xxxxxxxxxxxxx |xxxxxxxxxxxxx |xxxxxxxxxxxxx |xxxxxxxxxxxxx |       196981 |       196981 |       196981 |xxxxxxxxxxxxx |xxxxxxxxxxxxx |xxxxxxxxxxxxx |xxxxxxxxxxxxx |       393589 |       393589 |       393589 |xxxxxxxxxxxxx |xxxxxxxxxxxxx |xxxxxxxxxxxxx |xxxxxxxxxxxxx |       786805 |       786805 |       786805 |xxxxxxxxxxxxx |xxxxxxxxxxxxx |xxxxxxxxxxxxx |xxxxxxxxxxxxx |      1573237 |      1573237 |      1573237 |xxxxxxxxxxxxx |xxxxxxxxxxxxx |xxxxxxxxxxxxx |xxxxxxxxxxxxx |      3146104 |      3146104 |      3146104 |xxxxxxxxxxxxx |xxxxxxxxxxxxx |xxxxxxxxxxxxx |xxxxxxxxxxxxx |      6291832 |      6291832 |      6291832 |xxxxxxxxxxxxx |xxxxxxxxxxxxx |xxxxxxxxxxxxx |xxxxxxxxxxxxx |     12583288 |     12583288 |     12583288 |
bpred_bimod.jr_seen                          12653 |        12653 |        12653 |xxxxxxxxxxxxx |xxxxxxxxxxxxx |xxxxxxxxxxxxx |xxxxxxxxxxxxx |        24950 |        24950 |        24950 |xxxxxxxxxxxxx |xxxxxxxxxxxxx |xxxxxxxxxxxxx |xxxxxxxxxxxxx |        49526 |        49526 |        49526 |xxxxxxxxxxxxx |xxxxxxxxxxxxx |xxxxxxxxxxxxx |xxxxxxxxxxxxx |        98678 |        98678 |        98678 |xxxxxxxxxxxxx |xxxxxxxxxxxxx |xxxxxxxxxxxxx |xxxxxxxxxxxxx |       196982 |       196982 |       196982 |xxxxxxxxxxxxx |xxxxxxxxxxxxx |xxxxxxxxxxxxx |xxxxxxxxxxxxx |       393590 |       393590 |       393590 |xxxxxxxxxxxxx |xxxxxxxxxxxxx |xxxxxxxxxxxxx |xxxxxxxxxxxxx |       786806 |       786806 |       786806 |xxxxxxxxxxxxx |xxxxxxxxxxxxx |xxxxxxxxxxxxx |xxxxxxxxxxxxx |      1573238 |      1573238 |      1573238 |xxxxxxxxxxxxx |xxxxxxxxxxxxx |xxxxxxxxxxxxx |xxxxxxxxxxxxx |      3146105 |      3146105 |      3146105 |xxxxxxxxxxxxx |xxxxxxxxxxxxx |xxxxxxxxxxxxx |xxxxxxxxxxxxx |      6291833 |      6291833 |      6291833 |xxxxxxxxxxxxx |xxxxxxxxxxxxx |xxxxxxxxxxxxx |xxxxxxxxxxxxx |     12583289 |     12583289 |     12583289 |
bpred_bimod.jr_non_ras_hits.PP                   0 |            0 |            0 |xxxxxxxxxxxxx |xxxxxxxxxxxxx |xxxxxxxxxxxxx |xxxxxxxxxxxxx |            0 |            0 |            0 |xxxxxxxxxxxxx |xxxxxxxxxxxxx |xxxxxxxxxxxxx |xxxxxxxxxxxxx |            0 |            0 |            0 |xxxxxxxxxxxxx |xxxxxxxxxxxxx |xxxxxxxxxxxxx |xxxxxxxxxxxxx |            0 |            0 |            0 |xxxxxxxxxxxxx |xxxxxxxxxxxxx |xxxxxxxxxxxxx |xxxxxxxxxxxxx |            0 |            0 |            0 |xxxxxxxxxxxxx |xxxxxxxxxxxxx |xxxxxxxxxxxxx |xxxxxxxxxxxxx |            0 |            0 |            0 |xxxxxxxxxxxxx |xxxxxxxxxxxxx |xxxxxxxxxxxxx |xxxxxxxxxxxxx |            0 |            0 |            0 |xxxxxxxxxxxxx |xxxxxxxxxxxxx |xxxxxxxxxxxxx |xxxxxxxxxxxxx |            0 |            0 |            0 |xxxxxxxxxxxxx |xxxxxxxxxxxxx |xxxxxxxxxxxxx |xxxxxxxxxxxxx |            0 |            0 |            0 |xxxxxxxxxxxxx |xxxxxxxxxxxxx |xxxxxxxxxxxxx |xxxxxxxxxxxxx |            0 |            0 |            0 |xxxxxxxxxxxxx |xxxxxxxxxxxxx |xxxxxxxxxxxxx |xxxxxxxxxxxxx |            0 |            0 |            0 |
bpred_bimod.jr_non_ras_seen.PP                   0 |            0 |            0 |xxxxxxxxxxxxx |xxxxxxxxxxxxx |xxxxxxxxxxxxx |xxxxxxxxxxxxx |            0 |            0 |            0 |xxxxxxxxxxxxx |xxxxxxxxxxxxx |xxxxxxxxxxxxx |xxxxxxxxxxxxx |            0 |            0 |            0 |xxxxxxxxxxxxx |xxxxxxxxxxxxx |xxxxxxxxxxxxx |xxxxxxxxxxxxx |            0 |            0 |            0 |xxxxxxxxxxxxx |xxxxxxxxxxxxx |xxxxxxxxxxxxx |xxxxxxxxxxxxx |            0 |            0 |            0 |xxxxxxxxxxxxx |xxxxxxxxxxxxx |xxxxxxxxxxxxx |xxxxxxxxxxxxx |            0 |            0 |            0 |xxxxxxxxxxxxx |xxxxxxxxxxxxx |xxxxxxxxxxxxx |xxxxxxxxxxxxx |            0 |            0 |            0 |xxxxxxxxxxxxx |xxxxxxxxxxxxx |xxxxxxxxxxxxx |xxxxxxxxxxxxx |            0 |            0 |            0 |xxxxxxxxxxxxx |xxxxxxxxxxxxx |xxxxxxxxxxxxx |xxxxxxxxxxxxx |            1 |            1 |            1 |xxxxxxxxxxxxx |xxxxxxxxxxxxx |xxxxxxxxxxxxx |xxxxxxxxxxxxx |            1 |            1 |            1 |xxxxxxxxxxxxx |xxxxxxxxxxxxx |xxxxxxxxxxxxx |xxxxxxxxxxxxx |            1 |            1 |            1 |
bpred_bimod.bpred_addr_rate                 0.8377 |       0.8377 |       0.8377 |xxxxxxxxxxxxx |xxxxxxxxxxxxx |xxxxxxxxxxxxx |xxxxxxxxxxxxx |       0.8346 |       0.8347 |       0.8347 |xxxxxxxxxxxxx |xxxxxxxxxxxxx |xxxxxxxxxxxxx |xxxxxxxxxxxxx |       0.8341 |       0.8341 |       0.8341 |xxxxxxxxxxxxx |xxxxxxxxxxxxx |xxxxxxxxxxxxx |xxxxxxxxxxxxx |       0.8274 |       0.8274 |       0.8275 |xxxxxxxxxxxxx |xxxxxxxxxxxxx |xxxxxxxxxxxxx |xxxxxxxxxxxxx |       0.8253 |       0.8253 |       0.8253 |xxxxxxxxxxxxx |xxxxxxxxxxxxx |xxxxxxxxxxxxx |xxxxxxxxxxxxx |       0.8260 |       0.8260 |       0.8260 |xxxxxxxxxxxxx |xxxxxxxxxxxxx |xxxxxxxxxxxxx |xxxxxxxxxxxxx |       0.8205 |       0.8205 |       0.8205 |xxxxxxxxxxxxx |xxxxxxxxxxxxx |xxxxxxxxxxxxx |xxxxxxxxxxxxx |       0.8195 |       0.8195 |       0.8195 |xxxxxxxxxxxxx |xxxxxxxxxxxxx |xxxxxxxxxxxxx |xxxxxxxxxxxxx |       0.8205 |       0.8205 |       0.8205 |xxxxxxxxxxxxx |xxxxxxxxxxxxx |xxxxxxxxxxxxx |xxxxxxxxxxxxx |       0.8158 |       0.8158 |       0.8158 |xxxxxxxxxxxxx |xxxxxxxxxxxxx |xxxxxxxxxxxxx |xxxxxxxxxxxxx |       0.8150 |       0.8150 |       0.8150 |
bpred_bimod.bpred_dir_rate                  0.8384 |       0.8384 |       0.8384 |xxxxxxxxxxxxx |xxxxxxxxxxxxx |xxxxxxxxxxxxx |xxxxxxxxxxxxx |       0.8350 |       0.8350 |       0.8350 |xxxxxxxxxxxxx |xxxxxxxxxxxxx |xxxxxxxxxxxxx |xxxxxxxxxxxxx |       0.8342 |       0.8342 |       0.8342 |xxxxxxxxxxxxx |xxxxxxxxxxxxx |xxxxxxxxxxxxx |xxxxxxxxxxxxx |       0.8275 |       0.8275 |       0.8275 |xxxxxxxxxxxxx |xxxxxxxxxxxxx |xxxxxxxxxxxxx |xxxxxxxxxxxxx |       0.8254 |       0.8254 |       0.8254 |xxxxxxxxxxxxx |xxxxxxxxxxxxx |xxxxxxxxxxxxx |xxxxxxxxxxxxx |       0.8260 |       0.8260 |       0.8260 |xxxxxxxxxxxxx |xxxxxxxxxxxxx |xxxxxxxxxxxxx |xxxxxxxxxxxxx |       0.8205 |       0.8205 |       0.8205 |xxxxxxxxxxxxx |xxxxxxxxxxxxx |xxxxxxxxxxxxx |xxxxxxxxxxxxx |       0.8195 |       0.8195 |       0.8195 |xxxxxxxxxxxxx |xxxxxxxxxxxxx |xxxxxxxxxxxxx |xxxxxxxxxxxxx |       0.8205 |       0.8205 |       0.8205 |xxxxxxxxxxxxx |xxxxxxxxxxxxx |xxxxxxxxxxxxx |xxxxxxxxxxxxx |       0.8158 |       0.8158 |       0.8158 |xxxxxxxxxxxxx |xxxxxxxxxxxxx |xxxxxxxxxxxxx |xxxxxxxxxxxxx |       0.8150 |       0.8150 |       0.8150 |
bpred_bimod.bpred_jr_rate                   1.0000 |       1.0000 |       1.0000 |xxxxxxxxxxxxx |xxxxxxxxxxxxx |xxxxxxxxxxxxx |xxxxxxxxxxxxx |       1.0000 |       1.0000 |       1.0000 |xxxxxxxxxxxxx |xxxxxxxxxxxxx |xxxxxxxxxxxxx |xxxxxxxxxxxxx |       1.0000 |       1.0000 |       1.0000 |xxxxxxxxxxxxx |xxxxxxxxxxxxx |xxxxxxxxxxxxx |xxxxxxxxxxxxx |       1.0000 |       1.0000 |       1.0000 |xxxxxxxxxxxxx |xxxxxxxxxxxxx |xxxxxxxxxxxxx |xxxxxxxxxxxxx |       1.0000 |       1.0000 |       1.0000 |xxxxxxxxxxxxx |xxxxxxxxxxxxx |xxxxxxxxxxxxx |xxxxxxxxxxxxx |       1.0000 |       1.0000 |       1.0000 |xxxxxxxxxxxxx |xxxxxxxxxxxxx |xxxxxxxxxxxxx |xxxxxxxxxxxxx |       1.0000 |       1.0000 |       1.0000 |xxxxxxxxxxxxx |xxxxxxxxxxxxx |xxxxxxxxxxxxx |xxxxxxxxxxxxx |       1.0000 |       1.0000 |       1.0000 |xxxxxxxxxxxxx |xxxxxxxxxxxxx |xxxxxxxxxxxxx |xxxxxxxxxxxxx |       1.0000 |       1.0000 |       1.0000 |xxxxxxxxxxxxx |xxxxxxxxxxxxx |xxxxxxxxxxxxx |xxxxxxxxxxxxx |       1.0000 |       1.0000 |       1.0000 |xxxxxxxxxxxxx |xxxxxxxxxxxxx |xxxxxxxxxxxxx |xxxxxxxxxxxxx |       1.0000 |       1.0000 |       1.0000 |
bpred_bimod.bpred_jr_non_ras_rate.PP       <error: |      <error: |      <error: |xxxxxxxxxxxxx |xxxxxxxxxxxxx |xxxxxxxxxxxxx |xxxxxxxxxxxxx |      <error: |      <error: |      <error: |xxxxxxxxxxxxx |xxxxxxxxxxxxx |xxxxxxxxxxxxx |xxxxxxxxxxxxx |      <error: |      <error: |      <error: |xxxxxxxxxxxxx |xxxxxxxxxxxxx |xxxxxxxxxxxxx |xxxxxxxxxxxxx |      <error: |      <error: |      <error: |xxxxxxxxxxxxx |xxxxxxxxxxxxx |xxxxxxxxxxxxx |xxxxxxxxxxxxx |      <error: |      <error: |      <error: |xxxxxxxxxxxxx |xxxxxxxxxxxxx |xxxxxxxxxxxxx |xxxxxxxxxxxxx |      <error: |      <error: |      <error: |xxxxxxxxxxxxx |xxxxxxxxxxxxx |xxxxxxxxxxxxx |xxxxxxxxxxxxx |      <error: |      <error: |      <error: |xxxxxxxxxxxxx |xxxxxxxxxxxxx |xxxxxxxxxxxxx |xxxxxxxxxxxxx |      <error: |      <error: |      <error: |xxxxxxxxxxxxx |xxxxxxxxxxxxx |xxxxxxxxxxxxx |xxxxxxxxxxxxx |       0.0000 |       0.0000 |       0.0000 |xxxxxxxxxxxxx |xxxxxxxxxxxxx |xxxxxxxxxxxxx |xxxxxxxxxxxxx |       0.0000 |       0.0000 |       0.0000 |xxxxxxxxxxxxx |xxxxxxxxxxxxx |xxxxxxxxxxxxx |xxxxxxxxxxxxx |       0.0000 |       0.0000 |       0.0000 |
bpred_bimod.retstack_pushes                  12655 |        12655 |        12655 |xxxxxxxxxxxxx |xxxxxxxxxxxxx |xxxxxxxxxxxxx |xxxxxxxxxxxxx |        24952 |        24952 |        24952 |xxxxxxxxxxxxx |xxxxxxxxxxxxx |xxxxxxxxxxxxx |xxxxxxxxxxxxx |        49528 |        49528 |        49528 |xxxxxxxxxxxxx |xxxxxxxxxxxxx |xxxxxxxxxxxxx |xxxxxxxxxxxxx |        98680 |        98680 |        98680 |xxxxxxxxxxxxx |xxxxxxxxxxxxx |xxxxxxxxxxxxx |xxxxxxxxxxxxx |       196984 |       196984 |       196984 |xxxxxxxxxxxxx |xxxxxxxxxxxxx |xxxxxxxxxxxxx |xxxxxxxxxxxxx |       393592 |       393592 |       393592 |xxxxxxxxxxxxx |xxxxxxxxxxxxx |xxxxxxxxxxxxx |xxxxxxxxxxxxx |       786808 |       786808 |       786808 |xxxxxxxxxxxxx |xxxxxxxxxxxxx |xxxxxxxxxxxxx |xxxxxxxxxxxxx |      1573240 |      1573240 |      1573240 |xxxxxxxxxxxxx |xxxxxxxxxxxxx |xxxxxxxxxxxxx |xxxxxxxxxxxxx |      3146106 |      3146106 |      3146106 |xxxxxxxxxxxxx |xxxxxxxxxxxxx |xxxxxxxxxxxxx |xxxxxxxxxxxxx |      6291834 |      6291834 |      6291834 |xxxxxxxxxxxxx |xxxxxxxxxxxxx |xxxxxxxxxxxxx |xxxxxxxxxxxxx |     12583290 |     12583290 |     12583290 |
bpred_bimod.retstack_pops                    12653 |        12653 |        12653 |xxxxxxxxxxxxx |xxxxxxxxxxxxx |xxxxxxxxxxxxx |xxxxxxxxxxxxx |        24950 |        24950 |        24950 |xxxxxxxxxxxxx |xxxxxxxxxxxxx |xxxxxxxxxxxxx |xxxxxxxxxxxxx |        49526 |        49526 |        49526 |xxxxxxxxxxxxx |xxxxxxxxxxxxx |xxxxxxxxxxxxx |xxxxxxxxxxxxx |        98678 |        98678 |        98678 |xxxxxxxxxxxxx |xxxxxxxxxxxxx |xxxxxxxxxxxxx |xxxxxxxxxxxxx |       196982 |       196982 |       196982 |xxxxxxxxxxxxx |xxxxxxxxxxxxx |xxxxxxxxxxxxx |xxxxxxxxxxxxx |       393590 |       393590 |       393590 |xxxxxxxxxxxxx |xxxxxxxxxxxxx |xxxxxxxxxxxxx |xxxxxxxxxxxxx |       786806 |       786806 |       786806 |xxxxxxxxxxxxx |xxxxxxxxxxxxx |xxxxxxxxxxxxx |xxxxxxxxxxxxx |      1573238 |      1573238 |      1573238 |xxxxxxxxxxxxx |xxxxxxxxxxxxx |xxxxxxxxxxxxx |xxxxxxxxxxxxx |      3146104 |      3146104 |      3146104 |xxxxxxxxxxxxx |xxxxxxxxxxxxx |xxxxxxxxxxxxx |xxxxxxxxxxxxx |      6291832 |      6291832 |      6291832 |xxxxxxxxxxxxx |xxxxxxxxxxxxx |xxxxxxxxxxxxx |xxxxxxxxxxxxx |     12583288 |     12583288 |     12583288 |
bpred_bimod.used_ras.PP                      12653 |        12653 |        12653 |xxxxxxxxxxxxx |xxxxxxxxxxxxx |xxxxxxxxxxxxx |xxxxxxxxxxxxx |        24950 |        24950 |        24950 |xxxxxxxxxxxxx |xxxxxxxxxxxxx |xxxxxxxxxxxxx |xxxxxxxxxxxxx |        49526 |        49526 |        49526 |xxxxxxxxxxxxx |xxxxxxxxxxxxx |xxxxxxxxxxxxx |xxxxxxxxxxxxx |        98678 |        98678 |        98678 |xxxxxxxxxxxxx |xxxxxxxxxxxxx |xxxxxxxxxxxxx |xxxxxxxxxxxxx |       196982 |       196982 |       196982 |xxxxxxxxxxxxx |xxxxxxxxxxxxx |xxxxxxxxxxxxx |xxxxxxxxxxxxx |       393590 |       393590 |       393590 |xxxxxxxxxxxxx |xxxxxxxxxxxxx |xxxxxxxxxxxxx |xxxxxxxxxxxxx |       786806 |       786806 |       786806 |xxxxxxxxxxxxx |xxxxxxxxxxxxx |xxxxxxxxxxxxx |xxxxxxxxxxxxx |      1573238 |      1573238 |      1573238 |xxxxxxxxxxxxx |xxxxxxxxxxxxx |xxxxxxxxxxxxx |xxxxxxxxxxxxx |      3146104 |      3146104 |      3146104 |xxxxxxxxxxxxx |xxxxxxxxxxxxx |xxxxxxxxxxxxx |xxxxxxxxxxxxx |      6291832 |      6291832 |      6291832 |xxxxxxxxxxxxx |xxxxxxxxxxxxx |xxxxxxxxxxxxx |xxxxxxxxxxxxx |     12583288 |     12583288 |     12583288 |
bpred_bimod.ras_hits.PP                      12653 |        12653 |        12653 |xxxxxxxxxxxxx |xxxxxxxxxxxxx |xxxxxxxxxxxxx |xxxxxxxxxxxxx |        24949 |        24949 |        24949 |xxxxxxxxxxxxx |xxxxxxxxxxxxx |xxxxxxxxxxxxx |xxxxxxxxxxxxx |        49525 |        49525 |        49525 |xxxxxxxxxxxxx |xxxxxxxxxxxxx |xxxxxxxxxxxxx |xxxxxxxxxxxxx |        98677 |        98677 |        98677 |xxxxxxxxxxxxx |xxxxxxxxxxxxx |xxxxxxxxxxxxx |xxxxxxxxxxxxx |       196981 |       196981 |       196981 |xxxxxxxxxxxxx |xxxxxxxxxxxxx |xxxxxxxxxxxxx |xxxxxxxxxxxxx |       393589 |       393589 |       393589 |xxxxxxxxxxxxx |xxxxxxxxxxxxx |xxxxxxxxxxxxx |xxxxxxxxxxxxx |       786805 |       786805 |       786805 |xxxxxxxxxxxxx |xxxxxxxxxxxxx |xxxxxxxxxxxxx |xxxxxxxxxxxxx |      1573237 |      1573237 |      1573237 |xxxxxxxxxxxxx |xxxxxxxxxxxxx |xxxxxxxxxxxxx |xxxxxxxxxxxxx |      3146104 |      3146104 |      3146104 |xxxxxxxxxxxxx |xxxxxxxxxxxxx |xxxxxxxxxxxxx |xxxxxxxxxxxxx |      6291832 |      6291832 |      6291832 |xxxxxxxxxxxxx |xxxxxxxxxxxxx |xxxxxxxxxxxxx |xxxxxxxxxxxxx |     12583288 |     12583288 |     12583288 |
bpred_bimod.ras_rate.PP                     1.0000 |       1.0000 |       1.0000 |xxxxxxxxxxxxx |xxxxxxxxxxxxx |xxxxxxxxxxxxx |xxxxxxxxxxxxx |       1.0000 |       1.0000 |       1.0000 |xxxxxxxxxxxxx |xxxxxxxxxxxxx |xxxxxxxxxxxxx |xxxxxxxxxxxxx |       1.0000 |       1.0000 |       1.0000 |xxxxxxxxxxxxx |xxxxxxxxxxxxx |xxxxxxxxxxxxx |xxxxxxxxxxxxx |       1.0000 |       1.0000 |       1.0000 |xxxxxxxxxxxxx |xxxxxxxxxxxxx |xxxxxxxxxxxxx |xxxxxxxxxxxxx |       1.0000 |       1.0000 |       1.0000 |xxxxxxxxxxxxx |xxxxxxxxxxxxx |xxxxxxxxxxxxx |xxxxxxxxxxxxx |       1.0000 |       1.0000 |       1.0000 |xxxxxxxxxxxxx |xxxxxxxxxxxxx |xxxxxxxxxxxxx |xxxxxxxxxxxxx |       1.0000 |       1.0000 |       1.0000 |xxxxxxxxxxxxx |xxxxxxxxxxxxx |xxxxxxxxxxxxx |xxxxxxxxxxxxx |       1.0000 |       1.0000 |       1.0000 |xxxxxxxxxxxxx |xxxxxxxxxxxxx |xxxxxxxxxxxxx |xxxxxxxxxxxxx |       1.0000 |       1.0000 |       1.0000 |xxxxxxxxxxxxx |xxxxxxxxxxxxx |xxxxxxxxxxxxx |xxxxxxxxxxxxx |       1.0000 |       1.0000 |       1.0000 |xxxxxxxxxxxxx |xxxxxxxxxxxxx |xxxxxxxxxxxxx |xxxxxxxxxxxxx |       1.0000 |       1.0000 |       1.0000 |
bpred_2lev.lookups                   xxxxxxxxxxxxx |xxxxxxxxxxxxx |xxxxxxxxxxxxx |       192616 |       192616 |       192616 |       192616 |xxxxxxxxxxxxx |xxxxxxxxxxxxx |xxxxxxxxxxxxx |       408507 |       408507 |       408507 |       408507 |xxxxxxxxxxxxx |xxxxxxxxxxxxx |xxxxxxxxxxxxx |       868351 |       868351 |       868351 |       868351 |xxxxxxxxxxxxx |xxxxxxxxxxxxx |xxxxxxxxxxxxx |      1817730 |      1817730 |      1817730 |      1817730 |xxxxxxxxxxxxx |xxxxxxxxxxxxx |xxxxxxxxxxxxx |      3832475 |      3832475 |      3832475 |      3832475 |xxxxxxxxxxxxx |xxxxxxxxxxxxx |xxxxxxxxxxxxx |      8101278 |      8101278 |      8101278 |      8101278 |xxxxxxxxxxxxx |xxxxxxxxxxxxx |xxxxxxxxxxxxx |     16874638 |     16874638 |     16874638 |     16874638 |xxxxxxxxxxxxx |xxxxxxxxxxxxx |xxxxxxxxxxxxx |     35350456 |     35350456 |     35350456 |     35350456 |xxxxxxxxxxxxx |xxxxxxxxxxxxx |xxxxxxxxxxxxx |     74230449 |     74230449 |     74230449 |     74230449 |xxxxxxxxxxxxx |xxxxxxxxxxxxx |xxxxxxxxxxxxx |    153853655 |    153853655 |    153853655 |    153853655 |xxxxxxxxxxxxx |xxxxxxxxxxxxx |xxxxxxxxxxxxx |    320549522 |    320549522 |    320549522 |    320549522 |
[...]
bpred_2lev.bpred_jr_non_ras_rate.PP  xxxxxxxxxxxxx |xxxxxxxxxxxxx |xxxxxxxxxxxxx |      <error: |      <error: |      <error: |      <error: |xxxxxxxxxxxxx |xxxxxxxxxxxxx |xxxxxxxxxxxxx |      <error: |      <error: |      <error: |      <error: |xxxxxxxxxxxxx |xxxxxxxxxxxxx |xxxxxxxxxxxxx |      <error: |      <error: |      <error: |      <error: |xxxxxxxxxxxxx |xxxxxxxxxxxxx |xxxxxxxxxxxxx |      <error: |      <error: |      <error: |      <error: |xxxxxxxxxxxxx |xxxxxxxxxxxxx |xxxxxxxxxxxxx |      <error: |      <error: |      <error: |      <error: |xxxxxxxxxxxxx |xxxxxxxxxxxxx |xxxxxxxxxxxxx |      <error: |      <error: |      <error: |      <error: |xxxxxxxxxxxxx |xxxxxxxxxxxxx |xxxxxxxxxxxxx |      <error: |      <error: |      <error: |      <error: |xxxxxxxxxxxxx |xxxxxxxxxxxxx |xxxxxxxxxxxxx |      <error: |      <error: |      <error: |      <error: |xxxxxxxxxxxxx |xxxxxxxxxxxxx |xxxxxxxxxxxxx |       0.0000 |       0.0000 |       0.0000 |       0.0000 |xxxxxxxxxxxxx |xxxxxxxxxxxxx |xxxxxxxxxxxxx |       0.0000 |       0.0000 |       0.0000 |       0.0000 |xxxxxxxxxxxxx |xxxxxxxxxxxxx |xxxxxxxxxxxxx |       0.0000 |       0.0000 |       0.0000 |       0.0000 |
bpred_2lev.retstack_pushes           xxxxxxxxxxxxx |xxxxxxxxxxxxx |xxxxxxxxxxxxx |        12655 |        12655 |        12655 |        12655 |xxxxxxxxxxxxx |xxxxxxxxxxxxx |xxxxxxxxxxxxx |        24952 |        24952 |        24952 |        24952 |xxxxxxxxxxxxx |xxxxxxxxxxxxx |xxxxxxxxxxxxx |        49528 |        49528 |        49528 |        49528 |xxxxxxxxxxxxx |xxxxxxxxxxxxx |xxxxxxxxxxxxx |        98680 |        98680 |        98680 |        98680 |xxxxxxxxxxxxx |xxxxxxxxxxxxx |xxxxxxxxxxxxx |       196984 |       196984 |       196984 |       196984 |xxxxxxxxxxxxx |xxxxxxxxxxxxx |xxxxxxxxxxxxx |       393592 |       393592 |       393592 |       393592 |xxxxxxxxxxxxx |xxxxxxxxxxxxx |xxxxxxxxxxxxx |       786808 |       786808 |       786808 |       786808 |xxxxxxxxxxxxx |xxxxxxxxxxxxx |xxxxxxxxxxxxx |      1573240 |      1573240 |      1573240 |      1573240 |xxxxxxxxxxxxx |xxxxxxxxxxxxx |xxxxxxxxxxxxx |      3146106 |      3146106 |      3146106 |      3146106 |xxxxxxxxxxxxx |xxxxxxxxxxxxx |xxxxxxxxxxxxx |      6291834 |      6291834 |      6291834 |      6291834 |xxxxxxxxxxxxx |xxxxxxxxxxxxx |xxxxxxxxxxxxx |     12583290 |     12583290 |     12583290 |     12583290 |
bpred_2lev.retstack_pops             xxxxxxxxxxxxx |xxxxxxxxxxxxx |xxxxxxxxxxxxx |        12653 |        12653 |        12653 |        12653 |xxxxxxxxxxxxx |xxxxxxxxxxxxx |xxxxxxxxxxxxx |        24950 |        24950 |        24950 |        24950 |xxxxxxxxxxxxx |xxxxxxxxxxxxx |xxxxxxxxxxxxx |        49526 |        49526 |        49526 |        49526 |xxxxxxxxxxxxx |xxxxxxxxxxxxx |xxxxxxxxxxxxx |        98678 |        98678 |        98678 |        98678 |xxxxxxxxxxxxx |xxxxxxxxxxxxx |xxxxxxxxxxxxx |       196982 |       196982 |       196982 |       196982 |xxxxxxxxxxxxx |xxxxxxxxxxxxx |xxxxxxxxxxxxx |       393590 |       393590 |       393590 |       393590 |xxxxxxxxxxxxx |xxxxxxxxxxxxx |xxxxxxxxxxxxx |       786806 |       786806 |       786806 |       786806 |xxxxxxxxxxxxx |xxxxxxxxxxxxx |xxxxxxxxxxxxx |      1573238 |      1573238 |      1573238 |      1573238 |xxxxxxxxxxxxx |xxxxxxxxxxxxx |xxxxxxxxxxxxx |      3146104 |      3146104 |      3146104 |      3146104 |xxxxxxxxxxxxx |xxxxxxxxxxxxx |xxxxxxxxxxxxx |      6291832 |      6291832 |      6291832 |      6291832 |xxxxxxxxxxxxx |xxxxxxxxxxxxx |xxxxxxxxxxxxx |     12583288 |     12583288 |     12583288 |     12583288 |
bpred_2lev.used_ras.PP               xxxxxxxxxxxxx |xxxxxxxxxxxxx |xxxxxxxxxxxxx |        12653 |        12653 |        12653 |        12653 |xxxxxxxxxxxxx |xxxxxxxxxxxxx |xxxxxxxxxxxxx |        24950 |        24950 |        24950 |        24950 |xxxxxxxxxxxxx |xxxxxxxxxxxxx |xxxxxxxxxxxxx |        49526 |        49526 |        49526 |        49526 |xxxxxxxxxxxxx |xxxxxxxxxxxxx |xxxxxxxxxxxxx |        98678 |        98678 |        98678 |        98678 |xxxxxxxxxxxxx |xxxxxxxxxxxxx |xxxxxxxxxxxxx |       196982 |       196982 |       196982 |       196982 |xxxxxxxxxxxxx |xxxxxxxxxxxxx |xxxxxxxxxxxxx |       393590 |       393590 |       393590 |       393590 |xxxxxxxxxxxxx |xxxxxxxxxxxxx |xxxxxxxxxxxxx |       786806 |       786806 |       786806 |       786806 |xxxxxxxxxxxxx |xxxxxxxxxxxxx |xxxxxxxxxxxxx |      1573238 |      1573238 |      1573238 |      1573238 |xxxxxxxxxxxxx |xxxxxxxxxxxxx |xxxxxxxxxxxxx |      3146104 |      3146104 |      3146104 |      3146104 |xxxxxxxxxxxxx |xxxxxxxxxxxxx |xxxxxxxxxxxxx |      6291832 |      6291832 |      6291832 |      6291832 |xxxxxxxxxxxxx |xxxxxxxxxxxxx |xxxxxxxxxxxxx |     12583288 |     12583288 |     12583288 |     12583288 |
bpred_2lev.ras_hits.PP               xxxxxxxxxxxxx |xxxxxxxxxxxxx |xxxxxxxxxxxxx |        12653 |        12653 |        12653 |        12653 |xxxxxxxxxxxxx |xxxxxxxxxxxxx |xxxxxxxxxxxxx |        24949 |        24949 |        24949 |        24949 |xxxxxxxxxxxxx |xxxxxxxxxxxxx |xxxxxxxxxxxxx |        49525 |        49525 |        49525 |        49525 |xxxxxxxxxxxxx |xxxxxxxxxxxxx |xxxxxxxxxxxxx |        98677 |        98677 |        98677 |        98677 |xxxxxxxxxxxxx |xxxxxxxxxxxxx |xxxxxxxxxxxxx |       196981 |       196981 |       196981 |       196981 |xxxxxxxxxxxxx |xxxxxxxxxxxxx |xxxxxxxxxxxxx |       393589 |       393589 |       393589 |       393589 |xxxxxxxxxxxxx |xxxxxxxxxxxxx |xxxxxxxxxxxxx |       786805 |       786805 |       786805 |       786805 |xxxxxxxxxxxxx |xxxxxxxxxxxxx |xxxxxxxxxxxxx |      1573237 |      1573237 |      1573237 |      1573237 |xxxxxxxxxxxxx |xxxxxxxxxxxxx |xxxxxxxxxxxxx |      3146104 |      3146104 |      3146104 |      3146104 |xxxxxxxxxxxxx |xxxxxxxxxxxxx |xxxxxxxxxxxxx |      6291832 |      6291832 |      6291832 |      6291832 |xxxxxxxxxxxxx |xxxxxxxxxxxxx |xxxxxxxxxxxxx |     12583288 |     12583288 |     12583288 |     12583288 |
bpred_2lev.ras_rate.PP               xxxxxxxxxxxxx |xxxxxxxxxxxxx |xxxxxxxxxxxxx |       1.0000 |       1.0000 |       1.0000 |       1.0000 |xxxxxxxxxxxxx |xxxxxxxxxxxxx |xxxxxxxxxxxxx |       1.0000 |       1.0000 |       1.0000 |       1.0000 |xxxxxxxxxxxxx |xxxxxxxxxxxxx |xxxxxxxxxxxxx |       1.0000 |       1.0000 |       1.0000 |       1.0000 |xxxxxxxxxxxxx |xxxxxxxxxxxxx |xxxxxxxxxxxxx |       1.0000 |       1.0000 |       1.0000 |       1.0000 |xxxxxxxxxxxxx |xxxxxxxxxxxxx |xxxxxxxxxxxxx |       1.0000 |       1.0000 |       1.0000 |       1.0000 |xxxxxxxxxxxxx |xxxxxxxxxxxxx |xxxxxxxxxxxxx |       1.0000 |       1.0000 |       1.0000 |       1.0000 |xxxxxxxxxxxxx |xxxxxxxxxxxxx |xxxxxxxxxxxxx |       1.0000 |       1.0000 |       1.0000 |       1.0000 |xxxxxxxxxxxxx |xxxxxxxxxxxxx |xxxxxxxxxxxxx |       1.0000 |       1.0000 |       1.0000 |       1.0000 |xxxxxxxxxxxxx |xxxxxxxxxxxxx |xxxxxxxxxxxxx |       1.0000 |       1.0000 |       1.0000 |       1.0000 |xxxxxxxxxxxxx |xxxxxxxxxxxxx |xxxxxxxxxxxxx |       1.0000 |       1.0000 |       1.0000 |       1.0000 |xxxxxxxxxxxxx |xxxxxxxxxxxxx |xxxxxxxxxxxxx |       1.0000 |       1.0000 |       1.0000 |       1.0000 |

Command list: 
	sslittle-na-sstrix-gcc -Wall -O3 -funroll-loops -finline-functions  -DRANDOM_SIZE=4096 -DSEED=0 -DSORT=cache_heapsort cache_heapsort1716988706.c simpleMain.c -o cache_heapsort7587483
	sim-cache -cache:dl1 dl1:256:32:1:l -cache:dl2 dl2:131072:32:1:l -cache:il1 il1:256:32:1:l -cache:il2 dl2 cache_heapsort7587483
	sim-cache -cache:dl1 dl1:256:32:1:l -cache:dl2 dl2:65536:32:1:l -cache:il1 il1:256:32:1:l -cache:il2 dl2 cache_heapsort7587483
	sim-cache -cache:dl1 dl1:1:32:256:l -cache:dl2 dl2:1:32:131072:l -cache:il1 il1:1:32:256:l -cache:il2 dl2 cache_heapsort7587483
	sim-cache -cache:dl1 dl1:1:32:256:l -cache:dl2 dl2:1:32:65536:l -cache:il1 il1:1:32:256:l -cache:il2 dl2 cache_heapsort7587483
	sim-bpred -bpred bimod -bpred:bimod 512 cache_heapsort7587483
	sim-bpred -bpred bimod -bpred:bimod 1024 cache_heapsort7587483
	sim-bpred -bpred bimod -bpred:bimod 2048 cache_heapsort7587483
	sim-bpred -bpred 2lev -bpred:2lev 1 512 10 1 cache_heapsort7587483
	sim-bpred -bpred 2lev -bpred:2lev 1 1024 10 1 cache_heapsort7587483
	sim-bpred -bpred 2lev -bpred:2lev 1 2048 10 1 cache_heapsort7587483
	sim-bpred -bpred 2lev -bpred:2lev 1 4096 10 1 cache_heapsort7587483
	sslittle-na-sstrix-gcc -Wall -O3 -funroll-loops -finline-functions  -DRANDOM_SIZE=8192 -DSEED=0 -DSORT=cache_heapsort cache_heapsort1716988706.c simpleMain.c -o cache_heapsort7587483
	sim-cache -cache:dl1 dl1:256:32:1:l -cache:dl2 dl2:131072:32:1:l -cache:il1 il1:256:32:1:l -cache:il2 dl2 cache_heapsort7587483
	sim-cache -cache:dl1 dl1:256:32:1:l -cache:dl2 dl2:65536:32:1:l -cache:il1 il1:256:32:1:l -cache:il2 dl2 cache_heapsort7587483
	sim-cache -cache:dl1 dl1:1:32:256:l -cache:dl2 dl2:1:32:131072:l -cache:il1 il1:1:32:256:l -cache:il2 dl2 cache_heapsort7587483
	sim-cache -cache:dl1 dl1:1:32:256:l -cache:dl2 dl2:1:32:65536:l -cache:il1 il1:1:32:256:l -cache:il2 dl2 cache_heapsort7587483
	sim-bpred -bpred bimod -bpred:bimod 512 cache_heapsort7587483
	sim-bpred -bpred bimod -bpred:bimod 1024 cache_heapsort7587483
	sim-bpred -bpred bimod -bpred:bimod 2048 cache_heapsort7587483
	sim-bpred -bpred 2lev -bpred:2lev 1 512 10 1 cache_heapsort7587483
	sim-bpred -bpred 2lev -bpred:2lev 1 1024 10 1 cache_heapsort7587483
	sim-bpred -bpred 2lev -bpred:2lev 1 2048 10 1 cache_heapsort7587483
	sim-bpred -bpred 2lev -bpred:2lev 1 4096 10 1 cache_heapsort7587483
	sslittle-na-sstrix-gcc -Wall -O3 -funroll-loops -finline-functions  -DRANDOM_SIZE=16384 -DSEED=0 -DSORT=cache_heapsort cache_heapsort1716988706.c simpleMain.c -o cache_heapsort7587483
	sim-cache -cache:dl1 dl1:256:32:1:l -cache:dl2 dl2:131072:32:1:l -cache:il1 il1:256:32:1:l -cache:il2 dl2 cache_heapsort7587483
	sim-cache -cache:dl1 dl1:256:32:1:l -cache:dl2 dl2:65536:32:1:l -cache:il1 il1:256:32:1:l -cache:il2 dl2 cache_heapsort7587483
	sim-cache -cache:dl1 dl1:1:32:256:l -cache:dl2 dl2:1:32:131072:l -cache:il1 il1:1:32:256:l -cache:il2 dl2 cache_heapsort7587483
	sim-cache -cache:dl1 dl1:1:32:256:l -cache:dl2 dl2:1:32:65536:l -cache:il1 il1:1:32:256:l -cache:il2 dl2 cache_heapsort7587483
	sim-bpred -bpred bimod -bpred:bimod 512 cache_heapsort7587483
	sim-bpred -bpred bimod -bpred:bimod 1024 cache_heapsort7587483
	sim-bpred -bpred bimod -bpred:bimod 2048 cache_heapsort7587483
	sim-bpred -bpred 2lev -bpred:2lev 1 512 10 1 cache_heapsort7587483
	sim-bpred -bpred 2lev -bpred:2lev 1 1024 10 1 cache_heapsort7587483
	sim-bpred -bpred 2lev -bpred:2lev 1 2048 10 1 cache_heapsort7587483
	sim-bpred -bpred 2lev -bpred:2lev 1 4096 10 1 cache_heapsort7587483
	sslittle-na-sstrix-gcc -Wall -O3 -funroll-loops -finline-functions  -DRANDOM_SIZE=32768 -DSEED=0 -DSORT=cache_heapsort cache_heapsort1716988706.c simpleMain.c -o cache_heapsort7587483
	sim-cache -cache:dl1 dl1:256:32:1:l -cache:dl2 dl2:131072:32:1:l -cache:il1 il1:256:32:1:l -cache:il2 dl2 cache_heapsort7587483
	sim-cache -cache:dl1 dl1:256:32:1:l -cache:dl2 dl2:65536:32:1:l -cache:il1 il1:256:32:1:l -cache:il2 dl2 cache_heapsort7587483
	sim-cache -cache:dl1 dl1:1:32:256:l -cache:dl2 dl2:1:32:131072:l -cache:il1 il1:1:32:256:l -cache:il2 dl2 cache_heapsort7587483
	sim-cache -cache:dl1 dl1:1:32:256:l -cache:dl2 dl2:1:32:65536:l -cache:il1 il1:1:32:256:l -cache:il2 dl2 cache_heapsort7587483
	sim-bpred -bpred bimod -bpred:bimod 512 cache_heapsort7587483
	sim-bpred -bpred bimod -bpred:bimod 1024 cache_heapsort7587483
	sim-bpred -bpred bimod -bpred:bimod 2048 cache_heapsort7587483
	sim-bpred -bpred 2lev -bpred:2lev 1 512 10 1 cache_heapsort7587483
	sim-bpred -bpred 2lev -bpred:2lev 1 1024 10 1 cache_heapsort7587483
	sim-bpred -bpred 2lev -bpred:2lev 1 2048 10 1 cache_heapsort7587483
	sim-bpred -bpred 2lev -bpred:2lev 1 4096 10 1 cache_heapsort7587483
	sslittle-na-sstrix-gcc -Wall -O3 -funroll-loops -finline-functions  -DRANDOM_SIZE=65536 -DSEED=0 -DSORT=cache_heapsort cache_heapsort1716988706.c simpleMain.c -o cache_heapsort7587483
	sim-cache -cache:dl1 dl1:256:32:1:l -cache:dl2 dl2:131072:32:1:l -cache:il1 il1:256:32:1:l -cache:il2 dl2 cache_heapsort7587483
	sim-cache -cache:dl1 dl1:256:32:1:l -cache:dl2 dl2:65536:32:1:l -cache:il1 il1:256:32:1:l -cache:il2 dl2 cache_heapsort7587483
	sim-cache -cache:dl1 dl1:1:32:256:l -cache:dl2 dl2:1:32:131072:l -cache:il1 il1:1:32:256:l -cache:il2 dl2 cache_heapsort7587483
	sim-cache -cache:dl1 dl1:1:32:256:l -cache:dl2 dl2:1:32:65536:l -cache:il1 il1:1:32:256:l -cache:il2 dl2 cache_heapsort7587483
	sim-bpred -bpred bimod -bpred:bimod 512 cache_heapsort7587483
	sim-bpred -bpred bimod -bpred:bimod 1024 cache_heapsort7587483
	sim-bpred -bpred bimod -bpred:bimod 2048 cache_heapsort7587483
	sim-bpred -bpred 2lev -bpred:2lev 1 512 10 1 cache_heapsort7587483
	sim-bpred -bpred 2lev -bpred:2lev 1 1024 10 1 cache_heapsort7587483
	sim-bpred -bpred 2lev -bpred:2lev 1 2048 10 1 cache_heapsort7587483
	sim-bpred -bpred 2lev -bpred:2lev 1 4096 10 1 cache_heapsort7587483
	sslittle-na-sstrix-gcc -Wall -O3 -funroll-loops -finline-functions  -DRANDOM_SIZE=131072 -DSEED=0 -DSORT=cache_heapsort cache_heapsort1716988706.c simpleMain.c -o cache_heapsort7587483
	sim-cache -cache:dl1 dl1:256:32:1:l -cache:dl2 dl2:131072:32:1:l -cache:il1 il1:256:32:1:l -cache:il2 dl2 cache_heapsort7587483
	sim-cache -cache:dl1 dl1:256:32:1:l -cache:dl2 dl2:65536:32:1:l -cache:il1 il1:256:32:1:l -cache:il2 dl2 cache_heapsort7587483
	sim-cache -cache:dl1 dl1:1:32:256:l -cache:dl2 dl2:1:32:131072:l -cache:il1 il1:1:32:256:l -cache:il2 dl2 cache_heapsort7587483
	sim-cache -cache:dl1 dl1:1:32:256:l -cache:dl2 dl2:1:32:65536:l -cache:il1 il1:1:32:256:l -cache:il2 dl2 cache_heapsort7587483
	sim-bpred -bpred bimod -bpred:bimod 512 cache_heapsort7587483
	sim-bpred -bpred bimod -bpred:bimod 1024 cache_heapsort7587483
	sim-bpred -bpred bimod -bpred:bimod 2048 cache_heapsort7587483
	sim-bpred -bpred 2lev -bpred:2lev 1 512 10 1 cache_heapsort7587483
	sim-bpred -bpred 2lev -bpred:2lev 1 1024 10 1 cache_heapsort7587483
	sim-bpred -bpred 2lev -bpred:2lev 1 2048 10 1 cache_heapsort7587483
	sim-bpred -bpred 2lev -bpred:2lev 1 4096 10 1 cache_heapsort7587483
	sslittle-na-sstrix-gcc -Wall -O3 -funroll-loops -finline-functions  -DRANDOM_SIZE=262144 -DSEED=0 -DSORT=cache_heapsort cache_heapsort1716988706.c simpleMain.c -o cache_heapsort7587483
	sim-cache -cache:dl1 dl1:256:32:1:l -cache:dl2 dl2:131072:32:1:l -cache:il1 il1:256:32:1:l -cache:il2 dl2 cache_heapsort7587483
	sim-cache -cache:dl1 dl1:256:32:1:l -cache:dl2 dl2:65536:32:1:l -cache:il1 il1:256:32:1:l -cache:il2 dl2 cache_heapsort7587483
	sim-cache -cache:dl1 dl1:1:32:256:l -cache:dl2 dl2:1:32:131072:l -cache:il1 il1:1:32:256:l -cache:il2 dl2 cache_heapsort7587483
	sim-cache -cache:dl1 dl1:1:32:256:l -cache:dl2 dl2:1:32:65536:l -cache:il1 il1:1:32:256:l -cache:il2 dl2 cache_heapsort7587483
	sim-bpred -bpred bimod -bpred:bimod 512 cache_heapsort7587483
	sim-bpred -bpred bimod -bpred:bimod 1024 cache_heapsort7587483
	sim-bpred -bpred bimod -bpred:bimod 2048 cache_heapsort7587483
	sim-bpred -bpred 2lev -bpred:2lev 1 512 10 1 cache_heapsort7587483
	sim-bpred -bpred 2lev -bpred:2lev 1 1024 10 1 cache_heapsort7587483
	sim-bpred -bpred 2lev -bpred:2lev 1 2048 10 1 cache_heapsort7587483
	sim-bpred -bpred 2lev -bpred:2lev 1 4096 10 1 cache_heapsort7587483
	sslittle-na-sstrix-gcc -Wall -O3 -funroll-loops -finline-functions  -DRANDOM_SIZE=524288 -DSEED=0 -DSORT=cache_heapsort cache_heapsort1716988706.c simpleMain.c -o cache_heapsort7587483
	sim-cache -cache:dl1 dl1:256:32:1:l -cache:dl2 dl2:131072:32:1:l -cache:il1 il1:256:32:1:l -cache:il2 dl2 cache_heapsort7587483
	sim-cache -cache:dl1 dl1:256:32:1:l -cache:dl2 dl2:65536:32:1:l -cache:il1 il1:256:32:1:l -cache:il2 dl2 cache_heapsort7587483
	sim-cache -cache:dl1 dl1:1:32:256:l -cache:dl2 dl2:1:32:131072:l -cache:il1 il1:1:32:256:l -cache:il2 dl2 cache_heapsort7587483
	sim-cache -cache:dl1 dl1:1:32:256:l -cache:dl2 dl2:1:32:65536:l -cache:il1 il1:1:32:256:l -cache:il2 dl2 cache_heapsort7587483
	sim-bpred -bpred bimod -bpred:bimod 512 cache_heapsort7587483
	sim-bpred -bpred bimod -bpred:bimod 1024 cache_heapsort7587483
	sim-bpred -bpred bimod -bpred:bimod 2048 cache_heapsort7587483
	sim-bpred -bpred 2lev -bpred:2lev 1 512 10 1 cache_heapsort7587483
	sim-bpred -bpred 2lev -bpred:2lev 1 1024 10 1 cache_heapsort7587483
	sim-bpred -bpred 2lev -bpred:2lev 1 2048 10 1 cache_heapsort7587483
	sim-bpred -bpred 2lev -bpred:2lev 1 4096 10 1 cache_heapsort7587483
	sslittle-na-sstrix-gcc -Wall -O3 -funroll-loops -finline-functions  -DRANDOM_SIZE=1048576 -DSEED=0 -DSORT=cache_heapsort cache_heapsort1716988706.c simpleMain.c -o cache_heapsort7587483
	sim-cache -cache:dl1 dl1:256:32:1:l -cache:dl2 dl2:131072:32:1:l -cache:il1 il1:256:32:1:l -cache:il2 dl2 cache_heapsort7587483
	sim-cache -cache:dl1 dl1:256:32:1:l -cache:dl2 dl2:65536:32:1:l -cache:il1 il1:256:32:1:l -cache:il2 dl2 cache_heapsort7587483
	sim-cache -cache:dl1 dl1:1:32:256:l -cache:dl2 dl2:1:32:131072:l -cache:il1 il1:1:32:256:l -cache:il2 dl2 cache_heapsort7587483
	sim-cache -cache:dl1 dl1:1:32:256:l -cache:dl2 dl2:1:32:65536:l -cache:il1 il1:1:32:256:l -cache:il2 dl2 cache_heapsort7587483
	sim-bpred -bpred bimod -bpred:bimod 512 cache_heapsort7587483
	sim-bpred -bpred bimod -bpred:bimod 1024 cache_heapsort7587483
	sim-bpred -bpred bimod -bpred:bimod 2048 cache_heapsort7587483
	sim-bpred -bpred 2lev -bpred:2lev 1 512 10 1 cache_heapsort7587483
	sim-bpred -bpred 2lev -bpred:2lev 1 1024 10 1 cache_heapsort7587483
	sim-bpred -bpred 2lev -bpred:2lev 1 2048 10 1 cache_heapsort7587483
	sim-bpred -bpred 2lev -bpred:2lev 1 4096 10 1 cache_heapsort7587483
	sslittle-na-sstrix-gcc -Wall -O3 -funroll-loops -finline-functions  -DRANDOM_SIZE=2097152 -DSEED=0 -DSORT=cache_heapsort cache_heapsort1716988706.c simpleMain.c -o cache_heapsort7587483
	sim-cache -cache:dl1 dl1:256:32:1:l -cache:dl2 dl2:131072:32:1:l -cache:il1 il1:256:32:1:l -cache:il2 dl2 cache_heapsort7587483
	sim-cache -cache:dl1 dl1:256:32:1:l -cache:dl2 dl2:65536:32:1:l -cache:il1 il1:256:32:1:l -cache:il2 dl2 cache_heapsort7587483
	sim-cache -cache:dl1 dl1:1:32:256:l -cache:dl2 dl2:1:32:131072:l -cache:il1 il1:1:32:256:l -cache:il2 dl2 cache_heapsort7587483
	sim-cache -cache:dl1 dl1:1:32:256:l -cache:dl2 dl2:1:32:65536:l -cache:il1 il1:1:32:256:l -cache:il2 dl2 cache_heapsort7587483
	sim-bpred -bpred bimod -bpred:bimod 512 cache_heapsort7587483
	sim-bpred -bpred bimod -bpred:bimod 1024 cache_heapsort7587483
	sim-bpred -bpred bimod -bpred:bimod 2048 cache_heapsort7587483
	sim-bpred -bpred 2lev -bpred:2lev 1 512 10 1 cache_heapsort7587483
	sim-bpred -bpred 2lev -bpred:2lev 1 1024 10 1 cache_heapsort7587483
	sim-bpred -bpred 2lev -bpred:2lev 1 2048 10 1 cache_heapsort7587483
	sim-bpred -bpred 2lev -bpred:2lev 1 4096 10 1 cache_heapsort7587483
	sslittle-na-sstrix-gcc -Wall -O3 -funroll-loops -finline-functions  -DRANDOM_SIZE=4194304 -DSEED=0 -DSORT=cache_heapsort cache_heapsort1716988706.c simpleMain.c -o cache_heapsort7587483
	sim-cache -cache:dl1 dl1:256:32:1:l -cache:dl2 dl2:131072:32:1:l -cache:il1 il1:256:32:1:l -cache:il2 dl2 cache_heapsort7587483
	sim-cache -cache:dl1 dl1:256:32:1:l -cache:dl2 dl2:65536:32:1:l -cache:il1 il1:256:32:1:l -cache:il2 dl2 cache_heapsort7587483
	sim-cache -cache:dl1 dl1:1:32:256:l -cache:dl2 dl2:1:32:131072:l -cache:il1 il1:1:32:256:l -cache:il2 dl2 cache_heapsort7587483
	sim-cache -cache:dl1 dl1:1:32:256:l -cache:dl2 dl2:1:32:65536:l -cache:il1 il1:1:32:256:l -cache:il2 dl2 cache_heapsort7587483
	sim-bpred -bpred bimod -bpred:bimod 512 cache_heapsort7587483
	sim-bpred -bpred bimod -bpred:bimod 1024 cache_heapsort7587483
	sim-bpred -bpred bimod -bpred:bimod 2048 cache_heapsort7587483
	sim-bpred -bpred 2lev -bpred:2lev 1 512 10 1 cache_heapsort7587483
	sim-bpred -bpred 2lev -bpred:2lev 1 1024 10 1 cache_heapsort7587483
	sim-bpred -bpred 2lev -bpred:2lev 1 2048 10 1 cache_heapsort7587483
	sim-bpred -bpred 2lev -bpred:2lev 1 4096 10 1 cache_heapsort7587483
