Fri Apr  2 17:35:44 2004
Run as: "./simple -c  cache4_heapsort"
-------------------------------------------------------------------------------------------------
sim-cache                                     4096 |         4096 |         4096 |         4096 |         8192 |         8192 |         8192 |         8192 |        16384 |        16384 |        16384 |        16384 |        32768 |        32768 |        32768 |        32768 |        65536 |        65536 |        65536 |        65536 |       131072 |       131072 |       131072 |       131072 |       262144 |       262144 |       262144 |       262144 |       524288 |       524288 |       524288 |       524288 |      1048576 |      1048576 |      1048576 |      1048576 |      2097152 |      2097152 |      2097152 |      2097152 |      4194304 |      4194304 |      4194304 |      4194304 |
-cache:dl1 dl1:256:32:1:l -cache:dl2 dl2:131072:32:1:l -cache:il1 il1:256:32:1:l -cache:il2 dl2
-cache:dl1 dl1:256:32:1:l -cache:dl2 dl2:65536:32:1:l -cache:il1 il1:256:32:1:l -cache:il2 dl2
-cache:dl1 dl1:1:32:256:l -cache:dl2 dl2:1:32:131072:l -cache:il1 il1:1:32:256:l -cache:il2 dl2
-cache:dl1 dl1:1:32:256:l -cache:dl2 dl2:1:32:65536:l -cache:il1 il1:1:32:256:l -cache:il2 dl2
-------------------------------------------------------------------------------------------------
sim_num_insn                               1009754 |      1009754 |      1009754 |      1009754 |      2138770 |      2138770 |      2138770 |      2138770 |      4529789 |      4529789 |      4529789 |      4529789 |      9574567 |      9574567 |      9574567 |      9574567 |     20236477 |     20236477 |     20236477 |     20236477 |     42599735 |     42599735 |     42599735 |     42599735 |     89582215 |     89582215 |     89582215 |     89582215 |    187706756 |    187706756 |    187706756 |    187706756 |    392997609 |    392997609 |    392997609 |    392997609 |    820189937 |    820189937 |    820189937 |    820189937 |   1710673117 |   1710673117 |   1710673117 |   1710673117 |
sim_num_refs                                283997 |       283997 |       283997 |       283997 |       592939 |       592939 |       592939 |       592939 |      1242942 |      1242942 |      1242942 |      1242942 |      2606851 |      2606851 |      2606851 |      2606851 |      5471874 |      5471874 |      5471874 |      5471874 |     11454583 |     11454583 |     11454583 |     11454583 |     23962846 |     23962846 |     23962846 |     23962846 |     49990656 |     49990656 |     49990656 |     49990656 |    104225782 |    104225782 |    104225782 |    104225782 |    216731273 |    216731273 |    216731273 |    216731273 |    450419781 |    450419781 |    450419781 |    450419781 |
sim_elapsed_time                                 1 |            1 |            9 |            5 |            1 |            1 |           15 |            8 |            1 |            1 |           25 |           13 |            3 |            2 |           46 |           23 |            6 |            5 |           85 |           42 |           12 |           11 |          157 |           77 |           24 |           25 |          270 |          107 |           51 |           50 |          376 |          142 |          106 |          105 |          820 |          445 |         1239 |         1524 |         2149 |         1344 |         1872 |         1869 |         3443 |         2474 |
sim_inst_rate                         1009754.0000 | 1009754.0000 |  112194.8889 |  201950.8000 | 2138770.0000 | 2138770.0000 |  142584.6667 |  267346.2500 | 4529789.0000 | 4529789.0000 |  181191.5600 |  348445.3077 | 3191522.3333 | 4787283.5000 |  208142.7609 |  416285.5217 | 3372746.1667 | 4047295.4000 |  238076.2000 |  481820.8810 | 3549977.9167 | 3872703.1818 |  271335.8917 |  553243.3117 | 3732592.2917 | 3583288.6000 |  331785.9815 |  837216.9626 | 3680524.6275 | 3754135.1200 |  499220.0957 | 1321878.5634 | 3707524.6132 | 3742834.3714 |  479265.3768 |  883140.6944 |  661977.3503 |  538182.3734 |  381661.2085 |  610260.3698 |  913821.1095 |  915287.9171 |  496855.3927 |  691460.4353 |
il1.accesses                               1009754 |      1009754 |      1009754 |      1009754 |      2138770 |      2138770 |      2138770 |      2138770 |      4529789 |      4529789 |      4529789 |      4529789 |      9574567 |      9574567 |      9574567 |      9574567 |     20236477 |     20236477 |     20236477 |     20236477 |     42599735 |     42599735 |     42599735 |     42599735 |     89582215 |     89582215 |     89582215 |     89582215 |    187706756 |    187706756 |    187706756 |    187706756 |    392997609 |    392997609 |    392997609 |    392997609 |    820189937 |    820189937 |    820189937 |    820189937 |   1710673117 |   1710673117 |   1710673117 |   1710673117 |
il1.hits                                   1009282 |      1009282 |      1009311 |      1009311 |      2138283 |      2138283 |      2138311 |      2138311 |      4529296 |      4529296 |      4529338 |      4529338 |      9574075 |      9574075 |      9574115 |      9574115 |     20235985 |     20235985 |     20236025 |     20236025 |     42599243 |     42599243 |     42599283 |     42599283 |     89581723 |     89581723 |     89581763 |     89581763 |    187706264 |    187706264 |    187706304 |    187706304 |    392997081 |    392997081 |    392997123 |    392997123 |    820189409 |    820189409 |    820189451 |    820189451 |   1710672589 |   1710672589 |   1710672631 |   1710672631 |
il1.misses                                     472 |          472 |          443 |          443 |          487 |          487 |          459 |          459 |          493 |          493 |          451 |          451 |          492 |          492 |          452 |          452 |          492 |          492 |          452 |          452 |          492 |          492 |          452 |          452 |          492 |          492 |          452 |          452 |          492 |          492 |          452 |          452 |          528 |          528 |          486 |          486 |          528 |          528 |          486 |          486 |          528 |          528 |          486 |          486 |
il1.replacements                               234 |          234 |          187 |          187 |          245 |          245 |          203 |          203 |          253 |          253 |          195 |          195 |          252 |          252 |          196 |          196 |          252 |          252 |          196 |          196 |          252 |          252 |          196 |          196 |          252 |          252 |          196 |          196 |          252 |          252 |          196 |          196 |          289 |          289 |          230 |          230 |          289 |          289 |          230 |          230 |          289 |          289 |          230 |          230 |
il1.writebacks                                   0 |            0 |            0 |            0 |            0 |            0 |            0 |            0 |            0 |            0 |            0 |            0 |            0 |            0 |            0 |            0 |            0 |            0 |            0 |            0 |            0 |            0 |            0 |            0 |            0 |            0 |            0 |            0 |            0 |            0 |            0 |            0 |            0 |            0 |            0 |            0 |            0 |            0 |            0 |            0 |            0 |            0 |            0 |            0 |
il1.invalidations                                0 |            0 |            0 |            0 |            0 |            0 |            0 |            0 |            0 |            0 |            0 |            0 |            0 |            0 |            0 |            0 |            0 |            0 |            0 |            0 |            0 |            0 |            0 |            0 |            0 |            0 |            0 |            0 |            0 |            0 |            0 |            0 |            0 |            0 |            0 |            0 |            0 |            0 |            0 |            0 |            0 |            0 |            0 |            0 |
il1.miss_rate                               0.0005 |       0.0005 |       0.0004 |       0.0004 |       0.0002 |       0.0002 |       0.0002 |       0.0002 |       0.0001 |       0.0001 |       0.0001 |       0.0001 |       0.0001 |       0.0001 |       0.0000 |       0.0000 |       0.0000 |       0.0000 |       0.0000 |       0.0000 |       0.0000 |       0.0000 |       0.0000 |       0.0000 |       0.0000 |       0.0000 |       0.0000 |       0.0000 |       0.0000 |       0.0000 |       0.0000 |       0.0000 |       0.0000 |       0.0000 |       0.0000 |       0.0000 |       0.0000 |       0.0000 |       0.0000 |       0.0000 |       0.0000 |       0.0000 |       0.0000 |       0.0000 |
il1.repl_rate                               0.0002 |       0.0002 |       0.0002 |       0.0002 |       0.0001 |       0.0001 |       0.0001 |       0.0001 |       0.0001 |       0.0001 |       0.0000 |       0.0000 |       0.0000 |       0.0000 |       0.0000 |       0.0000 |       0.0000 |       0.0000 |       0.0000 |       0.0000 |       0.0000 |       0.0000 |       0.0000 |       0.0000 |       0.0000 |       0.0000 |       0.0000 |       0.0000 |       0.0000 |       0.0000 |       0.0000 |       0.0000 |       0.0000 |       0.0000 |       0.0000 |       0.0000 |       0.0000 |       0.0000 |       0.0000 |       0.0000 |       0.0000 |       0.0000 |       0.0000 |       0.0000 |
il1.wb_rate                                 0.0000 |       0.0000 |       0.0000 |       0.0000 |       0.0000 |       0.0000 |       0.0000 |       0.0000 |       0.0000 |       0.0000 |       0.0000 |       0.0000 |       0.0000 |       0.0000 |       0.0000 |       0.0000 |       0.0000 |       0.0000 |       0.0000 |       0.0000 |       0.0000 |       0.0000 |       0.0000 |       0.0000 |       0.0000 |       0.0000 |       0.0000 |       0.0000 |       0.0000 |       0.0000 |       0.0000 |       0.0000 |       0.0000 |       0.0000 |       0.0000 |       0.0000 |       0.0000 |       0.0000 |       0.0000 |       0.0000 |       0.0000 |       0.0000 |       0.0000 |       0.0000 |
il1.inv_rate                                0.0000 |       0.0000 |       0.0000 |       0.0000 |       0.0000 |       0.0000 |       0.0000 |       0.0000 |       0.0000 |       0.0000 |       0.0000 |       0.0000 |       0.0000 |       0.0000 |       0.0000 |       0.0000 |       0.0000 |       0.0000 |       0.0000 |       0.0000 |       0.0000 |       0.0000 |       0.0000 |       0.0000 |       0.0000 |       0.0000 |       0.0000 |       0.0000 |       0.0000 |       0.0000 |       0.0000 |       0.0000 |       0.0000 |       0.0000 |       0.0000 |       0.0000 |       0.0000 |       0.0000 |       0.0000 |       0.0000 |       0.0000 |       0.0000 |       0.0000 |       0.0000 |
dl1.accesses                                284067 |       284067 |       284067 |       284067 |       593009 |       593009 |       593009 |       593009 |      1243012 |      1243012 |      1243012 |      1243012 |      2606921 |      2606921 |      2606921 |      2606921 |      5471944 |      5471944 |      5471944 |      5471944 |     11454653 |     11454653 |     11454653 |     11454653 |     23962916 |     23962916 |     23962916 |     23962916 |     49990726 |     49990726 |     49990726 |     49990726 |    104225852 |    104225852 |    104225852 |    104225852 |    216731343 |    216731343 |    216731343 |    216731343 |    450419851 |    450419851 |    450419851 |    450419851 |
dl1.hits                                    279038 |       279038 |       279844 |       279844 |       579308 |       579308 |       581002 |       581002 |      1205580 |      1205580 |      1210201 |      1210201 |      2513044 |      2513044 |      2522196 |      2522196 |      5241495 |      5241495 |      5263552 |      5263552 |     10915126 |     10915126 |     10959735 |     10959735 |     22718593 |     22718593 |     22819004 |     22819004 |     47195648 |     47195648 |     47397257 |     47397257 |     97994205 |     97994205 |     98437866 |     98437866 |    203074728 |    203074728 |    203967653 |    203967653 |    420625785 |    420625785 |    422534123 |    422534123 |
dl1.misses                                    5029 |         5029 |         4223 |         4223 |        13701 |        13701 |        12007 |        12007 |        37432 |        37432 |        32811 |        32811 |        93877 |        93877 |        84725 |        84725 |       230449 |       230449 |       208392 |       208392 |       539527 |       539527 |       494918 |       494918 |      1244323 |      1244323 |      1143912 |      1143912 |      2795078 |      2795078 |      2593469 |      2593469 |      6231647 |      6231647 |      5787986 |      5787986 |     13656615 |     13656615 |     12763690 |     12763690 |     29794066 |     29794066 |     27885728 |     27885728 |
dl1.replacements                              4773 |         4773 |         3967 |         3967 |        13445 |        13445 |        11751 |        11751 |        37176 |        37176 |        32555 |        32555 |        93621 |        93621 |        84469 |        84469 |       230193 |       230193 |       208136 |       208136 |       539271 |       539271 |       494662 |       494662 |      1244067 |      1244067 |      1143656 |      1143656 |      2794822 |      2794822 |      2593213 |      2593213 |      6231391 |      6231391 |      5787730 |      5787730 |     13656359 |     13656359 |     12763434 |     12763434 |     29793810 |     29793810 |     27885472 |     27885472 |
dl1.writebacks                                4107 |         4107 |         3378 |         3378 |        11938 |        11938 |        10390 |        10390 |        33732 |        33732 |        29545 |        29545 |        86127 |        86127 |        77952 |        77952 |       214525 |       214525 |       194669 |       194669 |       506849 |       506849 |       467152 |       467152 |      1177395 |      1177395 |      1087746 |      1087746 |      2659218 |      2659218 |      2480915 |      2480915 |      5952834 |      5952834 |      5562150 |      5562150 |     13093502 |     13093502 |     12311555 |     12311555 |     28652037 |     28652037 |     26979219 |     26979219 |
dl1.invalidations                                0 |            0 |            0 |            0 |            0 |            0 |            0 |            0 |            0 |            0 |            0 |            0 |            0 |            0 |            0 |            0 |            0 |            0 |            0 |            0 |            0 |            0 |            0 |            0 |            0 |            0 |            0 |            0 |            0 |            0 |            0 |            0 |            0 |            0 |            0 |            0 |            0 |            0 |            0 |            0 |            0 |            0 |            0 |            0 |
dl1.miss_rate                               0.0177 |       0.0177 |       0.0149 |       0.0149 |       0.0231 |       0.0231 |       0.0202 |       0.0202 |       0.0301 |       0.0301 |       0.0264 |       0.0264 |       0.0360 |       0.0360 |       0.0325 |       0.0325 |       0.0421 |       0.0421 |       0.0381 |       0.0381 |       0.0471 |       0.0471 |       0.0432 |       0.0432 |       0.0519 |       0.0519 |       0.0477 |       0.0477 |       0.0559 |       0.0559 |       0.0519 |       0.0519 |       0.0598 |       0.0598 |       0.0555 |       0.0555 |       0.0630 |       0.0630 |       0.0589 |       0.0589 |       0.0661 |       0.0661 |       0.0619 |       0.0619 |
dl1.repl_rate                               0.0168 |       0.0168 |       0.0140 |       0.0140 |       0.0227 |       0.0227 |       0.0198 |       0.0198 |       0.0299 |       0.0299 |       0.0262 |       0.0262 |       0.0359 |       0.0359 |       0.0324 |       0.0324 |       0.0421 |       0.0421 |       0.0380 |       0.0380 |       0.0471 |       0.0471 |       0.0432 |       0.0432 |       0.0519 |       0.0519 |       0.0477 |       0.0477 |       0.0559 |       0.0559 |       0.0519 |       0.0519 |       0.0598 |       0.0598 |       0.0555 |       0.0555 |       0.0630 |       0.0630 |       0.0589 |       0.0589 |       0.0661 |       0.0661 |       0.0619 |       0.0619 |
dl1.wb_rate                                 0.0145 |       0.0145 |       0.0119 |       0.0119 |       0.0201 |       0.0201 |       0.0175 |       0.0175 |       0.0271 |       0.0271 |       0.0238 |       0.0238 |       0.0330 |       0.0330 |       0.0299 |       0.0299 |       0.0392 |       0.0392 |       0.0356 |       0.0356 |       0.0442 |       0.0442 |       0.0408 |       0.0408 |       0.0491 |       0.0491 |       0.0454 |       0.0454 |       0.0532 |       0.0532 |       0.0496 |       0.0496 |       0.0571 |       0.0571 |       0.0534 |       0.0534 |       0.0604 |       0.0604 |       0.0568 |       0.0568 |       0.0636 |       0.0636 |       0.0599 |       0.0599 |
dl1.inv_rate                                0.0000 |       0.0000 |       0.0000 |       0.0000 |       0.0000 |       0.0000 |       0.0000 |       0.0000 |       0.0000 |       0.0000 |       0.0000 |       0.0000 |       0.0000 |       0.0000 |       0.0000 |       0.0000 |       0.0000 |       0.0000 |       0.0000 |       0.0000 |       0.0000 |       0.0000 |       0.0000 |       0.0000 |       0.0000 |       0.0000 |       0.0000 |       0.0000 |       0.0000 |       0.0000 |       0.0000 |       0.0000 |       0.0000 |       0.0000 |       0.0000 |       0.0000 |       0.0000 |       0.0000 |       0.0000 |       0.0000 |       0.0000 |       0.0000 |       0.0000 |       0.0000 |
dl2.accesses                                  9608 |         9608 |         8044 |         8044 |        26126 |        26126 |        22856 |        22856 |        71657 |        71657 |        62807 |        62807 |       180496 |       180496 |       163129 |       163129 |       445466 |       445466 |       403513 |       403513 |      1046868 |      1046868 |       962522 |       962522 |      2422210 |      2422210 |      2232110 |      2232110 |      5454788 |      5454788 |      5074836 |      5074836 |     12185009 |     12185009 |     11350622 |     11350622 |     26750645 |     26750645 |     25075731 |     25075731 |     58446631 |     58446631 |     54865433 |     54865433 |
dl2.hits                                      7679 |         7679 |         6171 |         6171 |        23158 |        23158 |        19970 |        19970 |        66644 |        66644 |        57878 |        57878 |       171386 |       171386 |       154103 |       154103 |       428162 |       428162 |       386295 |       386295 |      1013180 |      1013180 |       928920 |       928920 |      2355756 |      2353430 |      2165740 |      2133463 |      5320472 |      5096105 |      4887434 |      4748420 |     11465544 |     11117646 |     10697691 |     10379761 |     24615425 |     23646838 |     23133635 |     22127625 |     52239652 |     49645625 |     48969287 |     46606328 |
dl2.misses                                    1929 |         1929 |         1873 |         1873 |         2968 |         2968 |         2886 |         2886 |         5013 |         5013 |         4929 |         4929 |         9110 |         9110 |         9026 |         9026 |        17304 |        17304 |        17218 |        17218 |        33688 |        33688 |        33602 |        33602 |        66454 |        68780 |        66370 |        98647 |       134316 |       358683 |       187402 |       326416 |       719465 |      1067363 |       652931 |       970861 |      2135220 |      3103807 |      1942096 |      2948106 |      6206979 |      8801006 |      5896146 |      8259105 |
dl2.replacements                               389 |          389 |            0 |            0 |          403 |          403 |            0 |            0 |          400 |          400 |            0 |            0 |          401 |          401 |            0 |            0 |          403 |          403 |            0 |            0 |          403 |          403 |            0 |            0 |          401 |         4273 |            0 |        33111 |         4273 |       293147 |        56330 |       260880 |       588393 |      1001827 |       521859 |       905325 |      2004148 |      3038271 |      1811024 |      2882570 |      6075907 |      8735470 |      5765074 |      8193569 |
dl2.writebacks                                 198 |          198 |            0 |            0 |          212 |          212 |            0 |            0 |          212 |          212 |            0 |            0 |          213 |          213 |            0 |            0 |          213 |          213 |            0 |            0 |          213 |          213 |            0 |            0 |          213 |         4085 |            0 |        32379 |         4085 |       228478 |        55598 |       194410 |       458204 |       854135 |       389124 |       756289 |      1709156 |      2691859 |      1513247 |      2535509 |      5382170 |      7959238 |      5070277 |      7417353 |
dl2.invalidations                                0 |            0 |            0 |            0 |            0 |            0 |            0 |            0 |            0 |            0 |            0 |            0 |            0 |            0 |            0 |            0 |            0 |            0 |            0 |            0 |            0 |            0 |            0 |            0 |            0 |            0 |            0 |            0 |            0 |            0 |            0 |            0 |            0 |            0 |            0 |            0 |            0 |            0 |            0 |            0 |            0 |            0 |            0 |            0 |
dl2.miss_rate                               0.2008 |       0.2008 |       0.2328 |       0.2328 |       0.1136 |       0.1136 |       0.1263 |       0.1263 |       0.0700 |       0.0700 |       0.0785 |       0.0785 |       0.0505 |       0.0505 |       0.0553 |       0.0553 |       0.0388 |       0.0388 |       0.0427 |       0.0427 |       0.0322 |       0.0322 |       0.0349 |       0.0349 |       0.0274 |       0.0284 |       0.0297 |       0.0442 |       0.0246 |       0.0658 |       0.0369 |       0.0643 |       0.0590 |       0.0876 |       0.0575 |       0.0855 |       0.0798 |       0.1160 |       0.0774 |       0.1176 |       0.1062 |       0.1506 |       0.1075 |       0.1505 |
dl2.repl_rate                               0.0405 |       0.0405 |       0.0000 |       0.0000 |       0.0154 |       0.0154 |       0.0000 |       0.0000 |       0.0056 |       0.0056 |       0.0000 |       0.0000 |       0.0022 |       0.0022 |       0.0000 |       0.0000 |       0.0009 |       0.0009 |       0.0000 |       0.0000 |       0.0004 |       0.0004 |       0.0000 |       0.0000 |       0.0002 |       0.0018 |       0.0000 |       0.0148 |       0.0008 |       0.0537 |       0.0111 |       0.0514 |       0.0483 |       0.0822 |       0.0460 |       0.0798 |       0.0749 |       0.1136 |       0.0722 |       0.1150 |       0.1040 |       0.1495 |       0.1051 |       0.1493 |
dl2.wb_rate                                 0.0206 |       0.0206 |       0.0000 |       0.0000 |       0.0081 |       0.0081 |       0.0000 |       0.0000 |       0.0030 |       0.0030 |       0.0000 |       0.0000 |       0.0012 |       0.0012 |       0.0000 |       0.0000 |       0.0005 |       0.0005 |       0.0000 |       0.0000 |       0.0002 |       0.0002 |       0.0000 |       0.0000 |       0.0001 |       0.0017 |       0.0000 |       0.0145 |       0.0007 |       0.0419 |       0.0110 |       0.0383 |       0.0376 |       0.0701 |       0.0343 |       0.0666 |       0.0639 |       0.1006 |       0.0603 |       0.1011 |       0.0921 |       0.1362 |       0.0924 |       0.1352 |
dl2.inv_rate                                0.0000 |       0.0000 |       0.0000 |       0.0000 |       0.0000 |       0.0000 |       0.0000 |       0.0000 |       0.0000 |       0.0000 |       0.0000 |       0.0000 |       0.0000 |       0.0000 |       0.0000 |       0.0000 |       0.0000 |       0.0000 |       0.0000 |       0.0000 |       0.0000 |       0.0000 |       0.0000 |       0.0000 |       0.0000 |       0.0000 |       0.0000 |       0.0000 |       0.0000 |       0.0000 |       0.0000 |       0.0000 |       0.0000 |       0.0000 |       0.0000 |       0.0000 |       0.0000 |       0.0000 |       0.0000 |       0.0000 |       0.0000 |       0.0000 |       0.0000 |       0.0000 |
itlb.accesses                              1009754 |      1009754 |      1009754 |      1009754 |      2138770 |      2138770 |      2138770 |      2138770 |      4529789 |      4529789 |      4529789 |      4529789 |      9574567 |      9574567 |      9574567 |      9574567 |     20236477 |     20236477 |     20236477 |     20236477 |     42599735 |     42599735 |     42599735 |     42599735 |     89582215 |     89582215 |     89582215 |     89582215 |    187706756 |    187706756 |    187706756 |    187706756 |    392997609 |    392997609 |    392997609 |    392997609 |    820189937 |    820189937 |    820189937 |    820189937 |   1710673117 |   1710673117 |   1710673117 |   1710673117 |
itlb.hits                                  1009746 |      1009746 |      1009746 |      1009746 |      2138762 |      2138762 |      2138762 |      2138762 |      4529781 |      4529781 |      4529781 |      4529781 |      9574559 |      9574559 |      9574559 |      9574559 |     20236469 |     20236469 |     20236469 |     20236469 |     42599727 |     42599727 |     42599727 |     42599727 |     89582207 |     89582207 |     89582207 |     89582207 |    187706748 |    187706748 |    187706748 |    187706748 |    392997601 |    392997601 |    392997601 |    392997601 |    820189929 |    820189929 |    820189929 |    820189929 |   1710673109 |   1710673109 |   1710673109 |   1710673109 |
itlb.misses                                      8 |            8 |            8 |            8 |            8 |            8 |            8 |            8 |            8 |            8 |            8 |            8 |            8 |            8 |            8 |            8 |            8 |            8 |            8 |            8 |            8 |            8 |            8 |            8 |            8 |            8 |            8 |            8 |            8 |            8 |            8 |            8 |            8 |            8 |            8 |            8 |            8 |            8 |            8 |            8 |            8 |            8 |            8 |            8 |
itlb.replacements                                0 |            0 |            0 |            0 |            0 |            0 |            0 |            0 |            0 |            0 |            0 |            0 |            0 |            0 |            0 |            0 |            0 |            0 |            0 |            0 |            0 |            0 |            0 |            0 |            0 |            0 |            0 |            0 |            0 |            0 |            0 |            0 |            0 |            0 |            0 |            0 |            0 |            0 |            0 |            0 |            0 |            0 |            0 |            0 |
itlb.writebacks                                  0 |            0 |            0 |            0 |            0 |            0 |            0 |            0 |            0 |            0 |            0 |            0 |            0 |            0 |            0 |            0 |            0 |            0 |            0 |            0 |            0 |            0 |            0 |            0 |            0 |            0 |            0 |            0 |            0 |            0 |            0 |            0 |            0 |            0 |            0 |            0 |            0 |            0 |            0 |            0 |            0 |            0 |            0 |            0 |
itlb.invalidations                               0 |            0 |            0 |            0 |            0 |            0 |            0 |            0 |            0 |            0 |            0 |            0 |            0 |            0 |            0 |            0 |            0 |            0 |            0 |            0 |            0 |            0 |            0 |            0 |            0 |            0 |            0 |            0 |            0 |            0 |            0 |            0 |            0 |            0 |            0 |            0 |            0 |            0 |            0 |            0 |            0 |            0 |            0 |            0 |
itlb.miss_rate                              0.0000 |       0.0000 |       0.0000 |       0.0000 |       0.0000 |       0.0000 |       0.0000 |       0.0000 |       0.0000 |       0.0000 |       0.0000 |       0.0000 |       0.0000 |       0.0000 |       0.0000 |       0.0000 |       0.0000 |       0.0000 |       0.0000 |       0.0000 |       0.0000 |       0.0000 |       0.0000 |       0.0000 |       0.0000 |       0.0000 |       0.0000 |       0.0000 |       0.0000 |       0.0000 |       0.0000 |       0.0000 |       0.0000 |       0.0000 |       0.0000 |       0.0000 |       0.0000 |       0.0000 |       0.0000 |       0.0000 |       0.0000 |       0.0000 |       0.0000 |       0.0000 |
itlb.repl_rate                              0.0000 |       0.0000 |       0.0000 |       0.0000 |       0.0000 |       0.0000 |       0.0000 |       0.0000 |       0.0000 |       0.0000 |       0.0000 |       0.0000 |       0.0000 |       0.0000 |       0.0000 |       0.0000 |       0.0000 |       0.0000 |       0.0000 |       0.0000 |       0.0000 |       0.0000 |       0.0000 |       0.0000 |       0.0000 |       0.0000 |       0.0000 |       0.0000 |       0.0000 |       0.0000 |       0.0000 |       0.0000 |       0.0000 |       0.0000 |       0.0000 |       0.0000 |       0.0000 |       0.0000 |       0.0000 |       0.0000 |       0.0000 |       0.0000 |       0.0000 |       0.0000 |
itlb.wb_rate                                0.0000 |       0.0000 |       0.0000 |       0.0000 |       0.0000 |       0.0000 |       0.0000 |       0.0000 |       0.0000 |       0.0000 |       0.0000 |       0.0000 |       0.0000 |       0.0000 |       0.0000 |       0.0000 |       0.0000 |       0.0000 |       0.0000 |       0.0000 |       0.0000 |       0.0000 |       0.0000 |       0.0000 |       0.0000 |       0.0000 |       0.0000 |       0.0000 |       0.0000 |       0.0000 |       0.0000 |       0.0000 |       0.0000 |       0.0000 |       0.0000 |       0.0000 |       0.0000 |       0.0000 |       0.0000 |       0.0000 |       0.0000 |       0.0000 |       0.0000 |       0.0000 |
itlb.inv_rate                               0.0000 |       0.0000 |       0.0000 |       0.0000 |       0.0000 |       0.0000 |       0.0000 |       0.0000 |       0.0000 |       0.0000 |       0.0000 |       0.0000 |       0.0000 |       0.0000 |       0.0000 |       0.0000 |       0.0000 |       0.0000 |       0.0000 |       0.0000 |       0.0000 |       0.0000 |       0.0000 |       0.0000 |       0.0000 |       0.0000 |       0.0000 |       0.0000 |       0.0000 |       0.0000 |       0.0000 |       0.0000 |       0.0000 |       0.0000 |       0.0000 |       0.0000 |       0.0000 |       0.0000 |       0.0000 |       0.0000 |       0.0000 |       0.0000 |       0.0000 |       0.0000 |
dtlb.accesses                               284067 |       284067 |       284067 |       284067 |       593009 |       593009 |       593009 |       593009 |      1243012 |      1243012 |      1243012 |      1243012 |      2606921 |      2606921 |      2606921 |      2606921 |      5471944 |      5471944 |      5471944 |      5471944 |     11454653 |     11454653 |     11454653 |     11454653 |     23962916 |     23962916 |     23962916 |     23962916 |     49990726 |     49990726 |     49990726 |     49990726 |    104225852 |    104225852 |    104225852 |    104225852 |    216731343 |    216731343 |    216731343 |    216731343 |    450419851 |    450419851 |    450419851 |    450419851 |
dtlb.hits                                   284052 |       284052 |       284052 |       284052 |       592986 |       592986 |       592986 |       592986 |      1242973 |      1242973 |      1242973 |      1242973 |      2606850 |      2606850 |      2606850 |      2606850 |      5471799 |      5471799 |      5471799 |      5471799 |     11453862 |     11453862 |     11453862 |     11453862 |     23905545 |     23905545 |     23905545 |     23905545 |     49640146 |     49640146 |     49640146 |     49640146 |    102932062 |    102932062 |    102932062 |    102932062 |    212879724 |    212879724 |    212879724 |    212879724 |    440123451 |    440123451 |    440123451 |    440123451 |
dtlb.misses                                     15 |           15 |           15 |           15 |           23 |           23 |           23 |           23 |           39 |           39 |           39 |           39 |           71 |           71 |           71 |           71 |          145 |          145 |          145 |          145 |          791 |          791 |          791 |          791 |        57371 |        57371 |        57371 |        57371 |       350580 |       350580 |       350580 |       350580 |      1293790 |      1293790 |      1293790 |      1293790 |      3851619 |      3851619 |      3851619 |      3851619 |     10296400 |     10296400 |     10296400 |     10296400 |
dtlb.replacements                                0 |            0 |            0 |            0 |            0 |            0 |            0 |            0 |            0 |            0 |            0 |            0 |            0 |            0 |            0 |            0 |           17 |           17 |           17 |           17 |          663 |          663 |          663 |          663 |        57243 |        57243 |        57243 |        57243 |       350452 |       350452 |       350452 |       350452 |      1293662 |      1293662 |      1293662 |      1293662 |      3851491 |      3851491 |      3851491 |      3851491 |     10296272 |     10296272 |     10296272 |     10296272 |
dtlb.writebacks                                  0 |            0 |            0 |            0 |            0 |            0 |            0 |            0 |            0 |            0 |            0 |            0 |            0 |            0 |            0 |            0 |           15 |           15 |           15 |           15 |          537 |          537 |          537 |          537 |        54140 |        54140 |        54140 |        54140 |       331831 |       331831 |       331831 |       331831 |      1234542 |      1234542 |      1234542 |      1234542 |      3702692 |      3702692 |      3702692 |      3702692 |      9959539 |      9959539 |      9959539 |      9959539 |
dtlb.invalidations                               0 |            0 |            0 |            0 |            0 |            0 |            0 |            0 |            0 |            0 |            0 |            0 |            0 |            0 |            0 |            0 |            0 |            0 |            0 |            0 |            0 |            0 |            0 |            0 |            0 |            0 |            0 |            0 |            0 |            0 |            0 |            0 |            0 |            0 |            0 |            0 |            0 |            0 |            0 |            0 |            0 |            0 |            0 |            0 |
dtlb.miss_rate                              0.0001 |       0.0001 |       0.0001 |       0.0001 |       0.0000 |       0.0000 |       0.0000 |       0.0000 |       0.0000 |       0.0000 |       0.0000 |       0.0000 |       0.0000 |       0.0000 |       0.0000 |       0.0000 |       0.0000 |       0.0000 |       0.0000 |       0.0000 |       0.0001 |       0.0001 |       0.0001 |       0.0001 |       0.0024 |       0.0024 |       0.0024 |       0.0024 |       0.0070 |       0.0070 |       0.0070 |       0.0070 |       0.0124 |       0.0124 |       0.0124 |       0.0124 |       0.0178 |       0.0178 |       0.0178 |       0.0178 |       0.0229 |       0.0229 |       0.0229 |       0.0229 |
dtlb.repl_rate                              0.0000 |       0.0000 |       0.0000 |       0.0000 |       0.0000 |       0.0000 |       0.0000 |       0.0000 |       0.0000 |       0.0000 |       0.0000 |       0.0000 |       0.0000 |       0.0000 |       0.0000 |       0.0000 |       0.0000 |       0.0000 |       0.0000 |       0.0000 |       0.0001 |       0.0001 |       0.0001 |       0.0001 |       0.0024 |       0.0024 |       0.0024 |       0.0024 |       0.0070 |       0.0070 |       0.0070 |       0.0070 |       0.0124 |       0.0124 |       0.0124 |       0.0124 |       0.0178 |       0.0178 |       0.0178 |       0.0178 |       0.0229 |       0.0229 |       0.0229 |       0.0229 |
dtlb.wb_rate                                0.0000 |       0.0000 |       0.0000 |       0.0000 |       0.0000 |       0.0000 |       0.0000 |       0.0000 |       0.0000 |       0.0000 |       0.0000 |       0.0000 |       0.0000 |       0.0000 |       0.0000 |       0.0000 |       0.0000 |       0.0000 |       0.0000 |       0.0000 |       0.0000 |       0.0000 |       0.0000 |       0.0000 |       0.0023 |       0.0023 |       0.0023 |       0.0023 |       0.0066 |       0.0066 |       0.0066 |       0.0066 |       0.0118 |       0.0118 |       0.0118 |       0.0118 |       0.0171 |       0.0171 |       0.0171 |       0.0171 |       0.0221 |       0.0221 |       0.0221 |       0.0221 |
dtlb.inv_rate                               0.0000 |       0.0000 |       0.0000 |       0.0000 |       0.0000 |       0.0000 |       0.0000 |       0.0000 |       0.0000 |       0.0000 |       0.0000 |       0.0000 |       0.0000 |       0.0000 |       0.0000 |       0.0000 |       0.0000 |       0.0000 |       0.0000 |       0.0000 |       0.0000 |       0.0000 |       0.0000 |       0.0000 |       0.0000 |       0.0000 |       0.0000 |       0.0000 |       0.0000 |       0.0000 |       0.0000 |       0.0000 |       0.0000 |       0.0000 |       0.0000 |       0.0000 |       0.0000 |       0.0000 |       0.0000 |       0.0000 |       0.0000 |       0.0000 |       0.0000 |       0.0000 |
ld_text_base                            0x00400000 |   0x00400000 |   0x00400000 |   0x00400000 |   0x00400000 |   0x00400000 |   0x00400000 |   0x00400000 |   0x00400000 |   0x00400000 |   0x00400000 |   0x00400000 |   0x00400000 |   0x00400000 |   0x00400000 |   0x00400000 |   0x00400000 |   0x00400000 |   0x00400000 |   0x00400000 |   0x00400000 |   0x00400000 |   0x00400000 |   0x00400000 |   0x00400000 |   0x00400000 |   0x00400000 |   0x00400000 |   0x00400000 |   0x00400000 |   0x00400000 |   0x00400000 |   0x00400000 |   0x00400000 |   0x00400000 |   0x00400000 |   0x00400000 |   0x00400000 |   0x00400000 |   0x00400000 |   0x00400000 |   0x00400000 |   0x00400000 |   0x00400000 |
ld_text_size                                 29120 |        29120 |        29120 |        29120 |        29152 |        29152 |        29152 |        29152 |        29168 |        29168 |        29168 |        29168 |        29200 |        29200 |        29200 |        29200 |        29200 |        29200 |        29200 |        29200 |        29200 |        29200 |        29200 |        29200 |        29200 |        29200 |        29200 |        29200 |        29200 |        29200 |        29200 |        29200 |        29200 |        29200 |        29200 |        29200 |        29200 |        29200 |        29200 |        29200 |        29200 |        29200 |        29200 |        29200 |
ld_data_base                            0x10000000 |   0x10000000 |   0x10000000 |   0x10000000 |   0x10000000 |   0x10000000 |   0x10000000 |   0x10000000 |   0x10000000 |   0x10000000 |   0x10000000 |   0x10000000 |   0x10000000 |   0x10000000 |   0x10000000 |   0x10000000 |   0x10000000 |   0x10000000 |   0x10000000 |   0x10000000 |   0x10000000 |   0x10000000 |   0x10000000 |   0x10000000 |   0x10000000 |   0x10000000 |   0x10000000 |   0x10000000 |   0x10000000 |   0x10000000 |   0x10000000 |   0x10000000 |   0x10000000 |   0x10000000 |   0x10000000 |   0x10000000 |   0x10000000 |   0x10000000 |   0x10000000 |   0x10000000 |   0x10000000 |   0x10000000 |   0x10000000 |   0x10000000 |
ld_data_size                                  4096 |         4096 |         4096 |         4096 |         4096 |         4096 |         4096 |         4096 |         4096 |         4096 |         4096 |         4096 |         4096 |         4096 |         4096 |         4096 |         4096 |         4096 |         4096 |         4096 |         4096 |         4096 |         4096 |         4096 |         4096 |         4096 |         4096 |         4096 |         4096 |         4096 |         4096 |         4096 |         4096 |         4096 |         4096 |         4096 |         4096 |         4096 |         4096 |         4096 |         4096 |         4096 |         4096 |         4096 |
ld_stack_base                           0x7fffc000 |   0x7fffc000 |   0x7fffc000 |   0x7fffc000 |   0x7fffc000 |   0x7fffc000 |   0x7fffc000 |   0x7fffc000 |   0x7fffc000 |   0x7fffc000 |   0x7fffc000 |   0x7fffc000 |   0x7fffc000 |   0x7fffc000 |   0x7fffc000 |   0x7fffc000 |   0x7fffc000 |   0x7fffc000 |   0x7fffc000 |   0x7fffc000 |   0x7fffc000 |   0x7fffc000 |   0x7fffc000 |   0x7fffc000 |   0x7fffc000 |   0x7fffc000 |   0x7fffc000 |   0x7fffc000 |   0x7fffc000 |   0x7fffc000 |   0x7fffc000 |   0x7fffc000 |   0x7fffc000 |   0x7fffc000 |   0x7fffc000 |   0x7fffc000 |   0x7fffc000 |   0x7fffc000 |   0x7fffc000 |   0x7fffc000 |   0x7fffc000 |   0x7fffc000 |   0x7fffc000 |   0x7fffc000 |
ld_stack_size                                16384 |        16384 |        16384 |        16384 |        16384 |        16384 |        16384 |        16384 |        16384 |        16384 |        16384 |        16384 |        16384 |        16384 |        16384 |        16384 |        16384 |        16384 |        16384 |        16384 |        16384 |        16384 |        16384 |        16384 |        16384 |        16384 |        16384 |        16384 |        16384 |        16384 |        16384 |        16384 |        16384 |        16384 |        16384 |        16384 |        16384 |        16384 |        16384 |        16384 |        16384 |        16384 |        16384 |        16384 |
ld_prog_entry                           0x00400140 |   0x00400140 |   0x00400140 |   0x00400140 |   0x00400140 |   0x00400140 |   0x00400140 |   0x00400140 |   0x00400140 |   0x00400140 |   0x00400140 |   0x00400140 |   0x00400140 |   0x00400140 |   0x00400140 |   0x00400140 |   0x00400140 |   0x00400140 |   0x00400140 |   0x00400140 |   0x00400140 |   0x00400140 |   0x00400140 |   0x00400140 |   0x00400140 |   0x00400140 |   0x00400140 |   0x00400140 |   0x00400140 |   0x00400140 |   0x00400140 |   0x00400140 |   0x00400140 |   0x00400140 |   0x00400140 |   0x00400140 |   0x00400140 |   0x00400140 |   0x00400140 |   0x00400140 |   0x00400140 |   0x00400140 |   0x00400140 |   0x00400140 |
ld_environ_base                         0x7fff8000 |   0x7fff8000 |   0x7fff8000 |   0x7fff8000 |   0x7fff8000 |   0x7fff8000 |   0x7fff8000 |   0x7fff8000 |   0x7fff8000 |   0x7fff8000 |   0x7fff8000 |   0x7fff8000 |   0x7fff8000 |   0x7fff8000 |   0x7fff8000 |   0x7fff8000 |   0x7fff8000 |   0x7fff8000 |   0x7fff8000 |   0x7fff8000 |   0x7fff8000 |   0x7fff8000 |   0x7fff8000 |   0x7fff8000 |   0x7fff8000 |   0x7fff8000 |   0x7fff8000 |   0x7fff8000 |   0x7fff8000 |   0x7fff8000 |   0x7fff8000 |   0x7fff8000 |   0x7fff8000 |   0x7fff8000 |   0x7fff8000 |   0x7fff8000 |   0x7fff8000 |   0x7fff8000 |   0x7fff8000 |   0x7fff8000 |   0x7fff8000 |   0x7fff8000 |   0x7fff8000 |   0x7fff8000 |
ld_target_big_endian                             0 |            0 |            0 |            0 |            0 |            0 |            0 |            0 |            0 |            0 |            0 |            0 |            0 |            0 |            0 |            0 |            0 |            0 |            0 |            0 |            0 |            0 |            0 |            0 |            0 |            0 |            0 |            0 |            0 |            0 |            0 |            0 |            0 |            0 |            0 |            0 |            0 |            0 |            0 |            0 |            0 |            0 |            0 |            0 |
mem.page_count                                  23 |           23 |           23 |           23 |           31 |           31 |           31 |           31 |           47 |           47 |           47 |           47 |           79 |           79 |           79 |           79 |          143 |          143 |          143 |          143 |          271 |          271 |          271 |          271 |          527 |          527 |          527 |          527 |         1039 |         1039 |         1039 |         1039 |         2069 |         2069 |         2069 |         2069 |         4123 |         4123 |         4123 |         4123 |         8231 |         8231 |         8231 |         8231 |
mem.page_mem                                   92k |          92k |          92k |          92k |         124k |         124k |         124k |         124k |         188k |         188k |         188k |         188k |         316k |         316k |         316k |         316k |         572k |         572k |         572k |         572k |        1084k |        1084k |        1084k |        1084k |        2108k |        2108k |        2108k |        2108k |        4156k |        4156k |        4156k |        4156k |        8276k |        8276k |        8276k |        8276k |       16492k |       16492k |       16492k |       16492k |       32924k |       32924k |       32924k |       32924k |
mem.ptab_misses                                 23 |           23 |           23 |           23 |           31 |           31 |           31 |           31 |           47 |           47 |           47 |           47 |           79 |           79 |           79 |           79 |          143 |          143 |          143 |          143 |          271 |          271 |          271 |          271 |          527 |          527 |          527 |          527 |         1039 |         1039 |         1039 |         1039 |        11247 |        11247 |        11247 |        11247 |        23141 |        23141 |        23141 |        23141 |        64877 |        64877 |        64877 |        64877 |
mem.ptab_accesses                          4787084 |      4787084 |      4787084 |      4787084 |      9921224 |      9921224 |      9921224 |      9921224 |     20785402 |     20785402 |     20785402 |     20785402 |     43692524 |     43692524 |     43692524 |     43692524 |     92070210 |     92070210 |     92070210 |     92070210 |    193488660 |    193488660 |    193488660 |    193488660 |    406435106 |    406435106 |    406435106 |    406435106 |    850988890 |    850988890 |    850988890 |    850988890 |   1780622554 |   1780622554 |   1780622554 |   1780622554 |   3714402848 |   3714402848 |   3714402848 |   3714402848 |   7743712584 |   7743712584 |   7743712584 |   7743712584 |
mem.ptab_miss_rate                          0.0000 |       0.0000 |       0.0000 |       0.0000 |       0.0000 |       0.0000 |       0.0000 |       0.0000 |       0.0000 |       0.0000 |       0.0000 |       0.0000 |       0.0000 |       0.0000 |       0.0000 |       0.0000 |       0.0000 |       0.0000 |       0.0000 |       0.0000 |       0.0000 |       0.0000 |       0.0000 |       0.0000 |       0.0000 |       0.0000 |       0.0000 |       0.0000 |       0.0000 |       0.0000 |       0.0000 |       0.0000 |       0.0000 |       0.0000 |       0.0000 |       0.0000 |       0.0000 |       0.0000 |       0.0000 |       0.0000 |       0.0000 |       0.0000 |       0.0000 |       0.0000 |
-------------------------------------------------------------------------------------------------
sim-bpred                                     4096 |         4096 |         4096 |         4096 |         4096 |         4096 |         4096 |         8192 |         8192 |         8192 |         8192 |         8192 |         8192 |         8192 |        16384 |        16384 |        16384 |        16384 |        16384 |        16384 |        16384 |        32768 |        32768 |        32768 |        32768 |        32768 |        32768 |        32768 |        65536 |        65536 |        65536 |        65536 |        65536 |        65536 |        65536 |       131072 |       131072 |       131072 |       131072 |       131072 |       131072 |       131072 |       262144 |       262144 |       262144 |       262144 |       262144 |       262144 |       262144 |       524288 |       524288 |       524288 |       524288 |       524288 |       524288 |       524288 |      1048576 |      1048576 |      1048576 |      1048576 |      1048576 |      1048576 |      1048576 |      2097152 |      2097152 |      2097152 |      2097152 |      2097152 |      2097152 |      2097152 |      4194304 |      4194304 |      4194304 |      4194304 |      4194304 |      4194304 |      4194304 |
-bpred bimod -bpred:bimod 512
-bpred bimod -bpred:bimod 1024
-bpred bimod -bpred:bimod 2048
-bpred 2lev -bpred:2lev 1 512 10 1
-bpred 2lev -bpred:2lev 1 1024 10 1
-bpred 2lev -bpred:2lev 1 2048 10 1
-bpred 2lev -bpred:2lev 1 4096 10 1
-------------------------------------------------------------------------------------------------
sim_num_insn                               1009754 |      1009754 |      1009754 |      1009754 |      1009754 |      1009754 |      1009754 |      2138770 |      2138770 |      2138770 |      2138770 |      2138770 |      2138770 |      2138770 |      4529789 |      4529789 |      4529789 |      4529789 |      4529789 |      4529789 |      4529789 |      9574567 |      9574567 |      9574567 |      9574567 |      9574567 |      9574567 |      9574567 |     20236477 |     20236477 |     20236477 |     20236477 |     20236477 |     20236477 |     20236477 |     42599735 |     42599735 |     42599735 |     42599735 |     42599735 |     42599735 |     42599735 |     89582215 |     89582215 |     89582215 |     89582215 |     89582215 |     89582215 |     89582215 |    187706756 |    187706756 |    187706756 |    187706756 |    187706756 |    187706756 |    187706756 |    392997609 |    392997609 |    392997609 |    392997609 |    392997609 |    392997609 |    392997609 |    820189937 |    820189937 |    820189937 |    820189937 |    820189937 |    820189937 |    820189937 |   1710673117 |   1710673117 |   1710673117 |   1710673117 |   1710673117 |   1710673117 |   1710673117 |
sim_num_refs                                283997 |       283997 |       283997 |       283997 |       283997 |       283997 |       283997 |       592939 |       592939 |       592939 |       592939 |       592939 |       592939 |       592939 |      1242942 |      1242942 |      1242942 |      1242942 |      1242942 |      1242942 |      1242942 |      2606851 |      2606851 |      2606851 |      2606851 |      2606851 |      2606851 |      2606851 |      5471874 |      5471874 |      5471874 |      5471874 |      5471874 |      5471874 |      5471874 |     11454583 |     11454583 |     11454583 |     11454583 |     11454583 |     11454583 |     11454583 |     23962846 |     23962846 |     23962846 |     23962846 |     23962846 |     23962846 |     23962846 |     49990656 |     49990656 |     49990656 |     49990656 |     49990656 |     49990656 |     49990656 |    104225782 |    104225782 |    104225782 |    104225782 |    104225782 |    104225782 |    104225782 |    216731273 |    216731273 |    216731273 |    216731273 |    216731273 |    216731273 |    216731273 |    450419781 |    450419781 |    450419781 |    450419781 |    450419781 |    450419781 |    450419781 |
sim_elapsed_time                                 1 |            1 |            1 |            1 |            1 |            1 |            1 |            1 |            1 |            1 |            1 |            1 |            1 |            1 |            1 |            1 |            1 |            1 |            1 |            1 |            1 |            1 |            2 |            1 |            1 |            1 |            1 |            1 |            3 |            2 |            3 |            2 |            2 |            3 |            2 |            5 |            5 |            5 |            5 |            5 |            5 |            5 |           10 |           11 |           10 |           11 |           10 |           10 |           11 |           22 |           21 |           22 |           22 |           22 |           23 |           22 |          142 |          144 |          141 |          142 |          144 |          142 |          151 |          389 |          392 |          392 |          400 |          399 |          399 |          399 |          813 |          821 |          818 |          838 |          836 |          832 |          826 |
sim_inst_rate                         1009754.0000 | 1009754.0000 | 1009754.0000 | 1009754.0000 | 1009754.0000 | 1009754.0000 | 1009754.0000 | 2138770.0000 | 2138770.0000 | 2138770.0000 | 2138770.0000 | 2138770.0000 | 2138770.0000 | 2138770.0000 | 4529789.0000 | 4529789.0000 | 4529789.0000 | 4529789.0000 | 4529789.0000 | 4529789.0000 | 4529789.0000 | 9574567.0000 | 4787283.5000 | 9574567.0000 | 9574567.0000 | 9574567.0000 | 9574567.0000 | 9574567.0000 | 6745492.3333 |10118238.5000 | 6745492.3333 |10118238.5000 |10118238.5000 | 6745492.3333 |10118238.5000 | 8519947.0000 | 8519947.0000 | 8519947.0000 | 8519947.0000 | 8519947.0000 | 8519947.0000 | 8519947.0000 | 8958221.5000 | 8143837.7273 | 8958221.5000 | 8143837.7273 | 8958221.5000 | 8958221.5000 | 8143837.7273 | 8532125.2727 | 8938416.9524 | 8532125.2727 | 8532125.2727 | 8532125.2727 | 8161163.3043 | 8532125.2727 | 2767588.7958 | 2729150.0625 | 2787217.0851 | 2767588.7958 | 2729150.0625 | 2767588.7958 | 2602633.1722 | 2108457.4216 | 2092321.2679 | 2092321.2679 | 2050474.8425 | 2055613.8772 | 2055613.8772 | 2055613.8772 | 2104148.9754 | 2083645.6967 | 2091287.4291 | 2041376.0346 | 2046259.7093 | 2056097.4964 | 2071032.8293 |
sim_num_branches                            169557 |       169557 |       169557 |       169557 |       169557 |       169557 |       169557 |       357028 |       357028 |       357028 |       357028 |       357028 |       357028 |       357028 |       751920 |       751920 |       751920 |       751920 |       751920 |       751920 |       751920 |      1581403 |      1581403 |      1581403 |      1581403 |      1581403 |      1581403 |      1581403 |      3327047 |      3327047 |      3327047 |      3327047 |      3327047 |      3327047 |      3327047 |      6975550 |      6975550 |      6975550 |      6975550 |      6975550 |      6975550 |      6975550 |     14612970 |     14612970 |     14612970 |     14612970 |     14612970 |     14612970 |     14612970 |     30519216 |     30519216 |     30519216 |     30519216 |     30519216 |     30519216 |     30519216 |     63689876 |     63689876 |     63689876 |     63689876 |     63689876 |     63689876 |     63689876 |    132560562 |    132560562 |    132560562 |    132560562 |    132560562 |    132560562 |    132560562 |    275721250 |    275721250 |    275721250 |    275721250 |    275721250 |    275721250 |    275721250 |
sim_IPB                                     5.9552 |       5.9552 |       5.9552 |       5.9552 |       5.9552 |       5.9552 |       5.9552 |       5.9905 |       5.9905 |       5.9905 |       5.9905 |       5.9905 |       5.9905 |       5.9905 |       6.0243 |       6.0243 |       6.0243 |       6.0243 |       6.0243 |       6.0243 |       6.0243 |       6.0545 |       6.0545 |       6.0545 |       6.0545 |       6.0545 |       6.0545 |       6.0545 |       6.0824 |       6.0824 |       6.0824 |       6.0824 |       6.0824 |       6.0824 |       6.0824 |       6.1070 |       6.1070 |       6.1070 |       6.1070 |       6.1070 |       6.1070 |       6.1070 |       6.1303 |       6.1303 |       6.1303 |       6.1303 |       6.1303 |       6.1303 |       6.1303 |       6.1504 |       6.1504 |       6.1504 |       6.1504 |       6.1504 |       6.1504 |       6.1504 |       6.1705 |       6.1705 |       6.1705 |       6.1705 |       6.1705 |       6.1705 |       6.1705 |       6.1873 |       6.1873 |       6.1873 |       6.1873 |       6.1873 |       6.1873 |       6.1873 |       6.2044 |       6.2044 |       6.2044 |       6.2044 |       6.2044 |       6.2044 |       6.2044 |
bpred_bimod.lookups                         169557 |       169557 |       169557 |xxxxxxxxxxxxx |xxxxxxxxxxxxx |xxxxxxxxxxxxx |xxxxxxxxxxxxx |       357028 |       357028 |       357028 |xxxxxxxxxxxxx |xxxxxxxxxxxxx |xxxxxxxxxxxxx |xxxxxxxxxxxxx |       751920 |       751920 |       751920 |xxxxxxxxxxxxx |xxxxxxxxxxxxx |xxxxxxxxxxxxx |xxxxxxxxxxxxx |      1581403 |      1581403 |      1581403 |xxxxxxxxxxxxx |xxxxxxxxxxxxx |xxxxxxxxxxxxx |xxxxxxxxxxxxx |      3327047 |      3327047 |      3327047 |xxxxxxxxxxxxx |xxxxxxxxxxxxx |xxxxxxxxxxxxx |xxxxxxxxxxxxx |      6975550 |      6975550 |      6975550 |xxxxxxxxxxxxx |xxxxxxxxxxxxx |xxxxxxxxxxxxx |xxxxxxxxxxxxx |     14612970 |     14612970 |     14612970 |xxxxxxxxxxxxx |xxxxxxxxxxxxx |xxxxxxxxxxxxx |xxxxxxxxxxxxx |     30519216 |     30519216 |     30519216 |xxxxxxxxxxxxx |xxxxxxxxxxxxx |xxxxxxxxxxxxx |xxxxxxxxxxxxx |     63689876 |     63689876 |     63689876 |xxxxxxxxxxxxx |xxxxxxxxxxxxx |xxxxxxxxxxxxx |xxxxxxxxxxxxx |    132560562 |    132560562 |    132560562 |xxxxxxxxxxxxx |xxxxxxxxxxxxx |xxxxxxxxxxxxx |xxxxxxxxxxxxx |    275721250 |    275721250 |    275721250 |
bpred_bimod.updates                         169557 |       169557 |       169557 |xxxxxxxxxxxxx |xxxxxxxxxxxxx |xxxxxxxxxxxxx |xxxxxxxxxxxxx |       357028 |       357028 |       357028 |xxxxxxxxxxxxx |xxxxxxxxxxxxx |xxxxxxxxxxxxx |xxxxxxxxxxxxx |       751920 |       751920 |       751920 |xxxxxxxxxxxxx |xxxxxxxxxxxxx |xxxxxxxxxxxxx |xxxxxxxxxxxxx |      1581403 |      1581403 |      1581403 |xxxxxxxxxxxxx |xxxxxxxxxxxxx |xxxxxxxxxxxxx |xxxxxxxxxxxxx |      3327047 |      3327047 |      3327047 |xxxxxxxxxxxxx |xxxxxxxxxxxxx |xxxxxxxxxxxxx |xxxxxxxxxxxxx |      6975550 |      6975550 |      6975550 |xxxxxxxxxxxxx |xxxxxxxxxxxxx |xxxxxxxxxxxxx |xxxxxxxxxxxxx |     14612970 |     14612970 |     14612970 |xxxxxxxxxxxxx |xxxxxxxxxxxxx |xxxxxxxxxxxxx |xxxxxxxxxxxxx |     30519216 |     30519216 |     30519216 |xxxxxxxxxxxxx |xxxxxxxxxxxxx |xxxxxxxxxxxxx |xxxxxxxxxxxxx |     63689876 |     63689876 |     63689876 |xxxxxxxxxxxxx |xxxxxxxxxxxxx |xxxxxxxxxxxxx |xxxxxxxxxxxxx |    132560562 |    132560562 |    132560562 |xxxxxxxxxxxxx |xxxxxxxxxxxxx |xxxxxxxxxxxxx |xxxxxxxxxxxxx |    275721250 |    275721250 |    275721250 |
bpred_bimod.addr_hits                       138506 |       138512 |       138513 |xxxxxxxxxxxxx |xxxxxxxxxxxxx |xxxxxxxxxxxxx |xxxxxxxxxxxxx |       289945 |       289952 |       289954 |xxxxxxxxxxxxx |xxxxxxxxxxxxx |xxxxxxxxxxxxx |xxxxxxxxxxxxx |       609657 |       609664 |       609665 |xxxxxxxxxxxxx |xxxxxxxxxxxxx |xxxxxxxxxxxxx |xxxxxxxxxxxxx |      1275082 |      1275087 |      1275089 |xxxxxxxxxxxxx |xxxxxxxxxxxxx |xxxxxxxxxxxxx |xxxxxxxxxxxxx |      2675277 |      2675282 |      2675284 |xxxxxxxxxxxxx |xxxxxxxxxxxxx |xxxxxxxxxxxxx |xxxxxxxxxxxxx |      5588615 |      5588620 |      5588622 |xxxxxxxxxxxxx |xxxxxxxxxxxxx |xxxxxxxxxxxxx |xxxxxxxxxxxxx |     11691527 |     11691532 |     11691534 |xxxxxxxxxxxxx |xxxxxxxxxxxxx |xxxxxxxxxxxxx |xxxxxxxxxxxxx |     24343683 |     24343688 |     24343690 |xxxxxxxxxxxxx |xxxxxxxxxxxxx |xxxxxxxxxxxxx |xxxxxxxxxxxxx |     50732842 |     50732847 |     50732850 |xxxxxxxxxxxxx |xxxxxxxxxxxxx |xxxxxxxxxxxxx |xxxxxxxxxxxxx |    105316402 |    105316407 |    105316410 |xxxxxxxxxxxxx |xxxxxxxxxxxxx |xxxxxxxxxxxxx |xxxxxxxxxxxxx |    218833406 |    218833411 |    218833415 |
bpred_bimod.dir_hits                        138634 |       138638 |       138639 |xxxxxxxxxxxxx |xxxxxxxxxxxxx |xxxxxxxxxxxxx |xxxxxxxxxxxxx |       290078 |       290083 |       290085 |xxxxxxxxxxxxx |xxxxxxxxxxxxx |xxxxxxxxxxxxx |xxxxxxxxxxxxx |       609792 |       609796 |       609796 |xxxxxxxxxxxxx |xxxxxxxxxxxxx |xxxxxxxxxxxxx |xxxxxxxxxxxxx |      1275216 |      1275219 |      1275220 |xxxxxxxxxxxxx |xxxxxxxxxxxxx |xxxxxxxxxxxxx |xxxxxxxxxxxxx |      2675411 |      2675414 |      2675415 |xxxxxxxxxxxxx |xxxxxxxxxxxxx |xxxxxxxxxxxxx |xxxxxxxxxxxxx |      5588749 |      5588752 |      5588753 |xxxxxxxxxxxxx |xxxxxxxxxxxxx |xxxxxxxxxxxxx |xxxxxxxxxxxxx |     11691660 |     11691663 |     11691664 |xxxxxxxxxxxxx |xxxxxxxxxxxxx |xxxxxxxxxxxxx |xxxxxxxxxxxxx |     24343817 |     24343820 |     24343821 |xxxxxxxxxxxxx |xxxxxxxxxxxxx |xxxxxxxxxxxxx |xxxxxxxxxxxxx |     50732987 |     50732990 |     50732991 |xxxxxxxxxxxxx |xxxxxxxxxxxxx |xxxxxxxxxxxxx |xxxxxxxxxxxxx |    105316548 |    105316550 |    105316551 |xxxxxxxxxxxxx |xxxxxxxxxxxxx |xxxxxxxxxxxxx |xxxxxxxxxxxxx |    218833550 |    218833553 |    218833556 |
bpred_bimod.misses                           30923 |        30919 |        30918 |xxxxxxxxxxxxx |xxxxxxxxxxxxx |xxxxxxxxxxxxx |xxxxxxxxxxxxx |        66950 |        66945 |        66943 |xxxxxxxxxxxxx |xxxxxxxxxxxxx |xxxxxxxxxxxxx |xxxxxxxxxxxxx |       142128 |       142124 |       142124 |xxxxxxxxxxxxx |xxxxxxxxxxxxx |xxxxxxxxxxxxx |xxxxxxxxxxxxx |       306187 |       306184 |       306183 |xxxxxxxxxxxxx |xxxxxxxxxxxxx |xxxxxxxxxxxxx |xxxxxxxxxxxxx |       651636 |       651633 |       651632 |xxxxxxxxxxxxx |xxxxxxxxxxxxx |xxxxxxxxxxxxx |xxxxxxxxxxxxx |      1386801 |      1386798 |      1386797 |xxxxxxxxxxxxx |xxxxxxxxxxxxx |xxxxxxxxxxxxx |xxxxxxxxxxxxx |      2921310 |      2921307 |      2921306 |xxxxxxxxxxxxx |xxxxxxxxxxxxx |xxxxxxxxxxxxx |xxxxxxxxxxxxx |      6175399 |      6175396 |      6175395 |xxxxxxxxxxxxx |xxxxxxxxxxxxx |xxxxxxxxxxxxx |xxxxxxxxxxxxx |     12956889 |     12956886 |     12956885 |xxxxxxxxxxxxx |xxxxxxxxxxxxx |xxxxxxxxxxxxx |xxxxxxxxxxxxx |     27244014 |     27244012 |     27244011 |xxxxxxxxxxxxx |xxxxxxxxxxxxx |xxxxxxxxxxxxx |xxxxxxxxxxxxx |     56887700 |     56887697 |     56887694 |
bpred_bimod.jr_hits                          12653 |        12653 |        12653 |xxxxxxxxxxxxx |xxxxxxxxxxxxx |xxxxxxxxxxxxx |xxxxxxxxxxxxx |        24949 |        24949 |        24949 |xxxxxxxxxxxxx |xxxxxxxxxxxxx |xxxxxxxxxxxxx |xxxxxxxxxxxxx |        49525 |        49525 |        49525 |xxxxxxxxxxxxx |xxxxxxxxxxxxx |xxxxxxxxxxxxx |xxxxxxxxxxxxx |        98677 |        98677 |        98677 |xxxxxxxxxxxxx |xxxxxxxxxxxxx |xxxxxxxxxxxxx |xxxxxxxxxxxxx |       196981 |       196981 |       196981 |xxxxxxxxxxxxx |xxxxxxxxxxxxx |xxxxxxxxxxxxx |xxxxxxxxxxxxx |       393589 |       393589 |       393589 |xxxxxxxxxxxxx |xxxxxxxxxxxxx |xxxxxxxxxxxxx |xxxxxxxxxxxxx |       786805 |       786805 |       786805 |xxxxxxxxxxxxx |xxxxxxxxxxxxx |xxxxxxxxxxxxx |xxxxxxxxxxxxx |      1573237 |      1573237 |      1573237 |xxxxxxxxxxxxx |xxxxxxxxxxxxx |xxxxxxxxxxxxx |xxxxxxxxxxxxx |      3146104 |      3146104 |      3146104 |xxxxxxxxxxxxx |xxxxxxxxxxxxx |xxxxxxxxxxxxx |xxxxxxxxxxxxx |      6291832 |      6291832 |      6291832 |xxxxxxxxxxxxx |xxxxxxxxxxxxx |xxxxxxxxxxxxx |xxxxxxxxxxxxx |     12583288 |     12583288 |     12583288 |
bpred_bimod.jr_seen                          12653 |        12653 |        12653 |xxxxxxxxxxxxx |xxxxxxxxxxxxx |xxxxxxxxxxxxx |xxxxxxxxxxxxx |        24950 |        24950 |        24950 |xxxxxxxxxxxxx |xxxxxxxxxxxxx |xxxxxxxxxxxxx |xxxxxxxxxxxxx |        49526 |        49526 |        49526 |xxxxxxxxxxxxx |xxxxxxxxxxxxx |xxxxxxxxxxxxx |xxxxxxxxxxxxx |        98678 |        98678 |        98678 |xxxxxxxxxxxxx |xxxxxxxxxxxxx |xxxxxxxxxxxxx |xxxxxxxxxxxxx |       196982 |       196982 |       196982 |xxxxxxxxxxxxx |xxxxxxxxxxxxx |xxxxxxxxxxxxx |xxxxxxxxxxxxx |       393590 |       393590 |       393590 |xxxxxxxxxxxxx |xxxxxxxxxxxxx |xxxxxxxxxxxxx |xxxxxxxxxxxxx |       786806 |       786806 |       786806 |xxxxxxxxxxxxx |xxxxxxxxxxxxx |xxxxxxxxxxxxx |xxxxxxxxxxxxx |      1573238 |      1573238 |      1573238 |xxxxxxxxxxxxx |xxxxxxxxxxxxx |xxxxxxxxxxxxx |xxxxxxxxxxxxx |      3146105 |      3146105 |      3146105 |xxxxxxxxxxxxx |xxxxxxxxxxxxx |xxxxxxxxxxxxx |xxxxxxxxxxxxx |      6291833 |      6291833 |      6291833 |xxxxxxxxxxxxx |xxxxxxxxxxxxx |xxxxxxxxxxxxx |xxxxxxxxxxxxx |     12583289 |     12583289 |     12583289 |
bpred_bimod.jr_non_ras_hits.PP                   0 |            0 |            0 |xxxxxxxxxxxxx |xxxxxxxxxxxxx |xxxxxxxxxxxxx |xxxxxxxxxxxxx |            0 |            0 |            0 |xxxxxxxxxxxxx |xxxxxxxxxxxxx |xxxxxxxxxxxxx |xxxxxxxxxxxxx |            0 |            0 |            0 |xxxxxxxxxxxxx |xxxxxxxxxxxxx |xxxxxxxxxxxxx |xxxxxxxxxxxxx |            0 |            0 |            0 |xxxxxxxxxxxxx |xxxxxxxxxxxxx |xxxxxxxxxxxxx |xxxxxxxxxxxxx |            0 |            0 |            0 |xxxxxxxxxxxxx |xxxxxxxxxxxxx |xxxxxxxxxxxxx |xxxxxxxxxxxxx |            0 |            0 |            0 |xxxxxxxxxxxxx |xxxxxxxxxxxxx |xxxxxxxxxxxxx |xxxxxxxxxxxxx |            0 |            0 |            0 |xxxxxxxxxxxxx |xxxxxxxxxxxxx |xxxxxxxxxxxxx |xxxxxxxxxxxxx |            0 |            0 |            0 |xxxxxxxxxxxxx |xxxxxxxxxxxxx |xxxxxxxxxxxxx |xxxxxxxxxxxxx |            0 |            0 |            0 |xxxxxxxxxxxxx |xxxxxxxxxxxxx |xxxxxxxxxxxxx |xxxxxxxxxxxxx |            0 |            0 |            0 |xxxxxxxxxxxxx |xxxxxxxxxxxxx |xxxxxxxxxxxxx |xxxxxxxxxxxxx |            0 |            0 |            0 |
bpred_bimod.jr_non_ras_seen.PP                   0 |            0 |            0 |xxxxxxxxxxxxx |xxxxxxxxxxxxx |xxxxxxxxxxxxx |xxxxxxxxxxxxx |            0 |            0 |            0 |xxxxxxxxxxxxx |xxxxxxxxxxxxx |xxxxxxxxxxxxx |xxxxxxxxxxxxx |            0 |            0 |            0 |xxxxxxxxxxxxx |xxxxxxxxxxxxx |xxxxxxxxxxxxx |xxxxxxxxxxxxx |            0 |            0 |            0 |xxxxxxxxxxxxx |xxxxxxxxxxxxx |xxxxxxxxxxxxx |xxxxxxxxxxxxx |            0 |            0 |            0 |xxxxxxxxxxxxx |xxxxxxxxxxxxx |xxxxxxxxxxxxx |xxxxxxxxxxxxx |            0 |            0 |            0 |xxxxxxxxxxxxx |xxxxxxxxxxxxx |xxxxxxxxxxxxx |xxxxxxxxxxxxx |            0 |            0 |            0 |xxxxxxxxxxxxx |xxxxxxxxxxxxx |xxxxxxxxxxxxx |xxxxxxxxxxxxx |            0 |            0 |            0 |xxxxxxxxxxxxx |xxxxxxxxxxxxx |xxxxxxxxxxxxx |xxxxxxxxxxxxx |            1 |            1 |            1 |xxxxxxxxxxxxx |xxxxxxxxxxxxx |xxxxxxxxxxxxx |xxxxxxxxxxxxx |            1 |            1 |            1 |xxxxxxxxxxxxx |xxxxxxxxxxxxx |xxxxxxxxxxxxx |xxxxxxxxxxxxx |            1 |            1 |            1 |
bpred_bimod.bpred_addr_rate                 0.8169 |       0.8169 |       0.8169 |xxxxxxxxxxxxx |xxxxxxxxxxxxx |xxxxxxxxxxxxx |xxxxxxxxxxxxx |       0.8121 |       0.8121 |       0.8121 |xxxxxxxxxxxxx |xxxxxxxxxxxxx |xxxxxxxxxxxxx |xxxxxxxxxxxxx |       0.8108 |       0.8108 |       0.8108 |xxxxxxxxxxxxx |xxxxxxxxxxxxx |xxxxxxxxxxxxx |xxxxxxxxxxxxx |       0.8063 |       0.8063 |       0.8063 |xxxxxxxxxxxxx |xxxxxxxxxxxxx |xxxxxxxxxxxxx |xxxxxxxxxxxxx |       0.8041 |       0.8041 |       0.8041 |xxxxxxxxxxxxx |xxxxxxxxxxxxx |xxxxxxxxxxxxx |xxxxxxxxxxxxx |       0.8012 |       0.8012 |       0.8012 |xxxxxxxxxxxxx |xxxxxxxxxxxxx |xxxxxxxxxxxxx |xxxxxxxxxxxxx |       0.8001 |       0.8001 |       0.8001 |xxxxxxxxxxxxx |xxxxxxxxxxxxx |xxxxxxxxxxxxx |xxxxxxxxxxxxx |       0.7977 |       0.7977 |       0.7977 |xxxxxxxxxxxxx |xxxxxxxxxxxxx |xxxxxxxxxxxxx |xxxxxxxxxxxxx |       0.7966 |       0.7966 |       0.7966 |xxxxxxxxxxxxx |xxxxxxxxxxxxx |xxxxxxxxxxxxx |xxxxxxxxxxxxx |       0.7945 |       0.7945 |       0.7945 |xxxxxxxxxxxxx |xxxxxxxxxxxxx |xxxxxxxxxxxxx |xxxxxxxxxxxxx |       0.7937 |       0.7937 |       0.7937 |
bpred_bimod.bpred_dir_rate                  0.8176 |       0.8176 |       0.8177 |xxxxxxxxxxxxx |xxxxxxxxxxxxx |xxxxxxxxxxxxx |xxxxxxxxxxxxx |       0.8125 |       0.8125 |       0.8125 |xxxxxxxxxxxxx |xxxxxxxxxxxxx |xxxxxxxxxxxxx |xxxxxxxxxxxxx |       0.8110 |       0.8110 |       0.8110 |xxxxxxxxxxxxx |xxxxxxxxxxxxx |xxxxxxxxxxxxx |xxxxxxxxxxxxx |       0.8064 |       0.8064 |       0.8064 |xxxxxxxxxxxxx |xxxxxxxxxxxxx |xxxxxxxxxxxxx |xxxxxxxxxxxxx |       0.8041 |       0.8041 |       0.8041 |xxxxxxxxxxxxx |xxxxxxxxxxxxx |xxxxxxxxxxxxx |xxxxxxxxxxxxx |       0.8012 |       0.8012 |       0.8012 |xxxxxxxxxxxxx |xxxxxxxxxxxxx |xxxxxxxxxxxxx |xxxxxxxxxxxxx |       0.8001 |       0.8001 |       0.8001 |xxxxxxxxxxxxx |xxxxxxxxxxxxx |xxxxxxxxxxxxx |xxxxxxxxxxxxx |       0.7977 |       0.7977 |       0.7977 |xxxxxxxxxxxxx |xxxxxxxxxxxxx |xxxxxxxxxxxxx |xxxxxxxxxxxxx |       0.7966 |       0.7966 |       0.7966 |xxxxxxxxxxxxx |xxxxxxxxxxxxx |xxxxxxxxxxxxx |xxxxxxxxxxxxx |       0.7945 |       0.7945 |       0.7945 |xxxxxxxxxxxxx |xxxxxxxxxxxxx |xxxxxxxxxxxxx |xxxxxxxxxxxxx |       0.7937 |       0.7937 |       0.7937 |
bpred_bimod.bpred_jr_rate                   1.0000 |       1.0000 |       1.0000 |xxxxxxxxxxxxx |xxxxxxxxxxxxx |xxxxxxxxxxxxx |xxxxxxxxxxxxx |       1.0000 |       1.0000 |       1.0000 |xxxxxxxxxxxxx |xxxxxxxxxxxxx |xxxxxxxxxxxxx |xxxxxxxxxxxxx |       1.0000 |       1.0000 |       1.0000 |xxxxxxxxxxxxx |xxxxxxxxxxxxx |xxxxxxxxxxxxx |xxxxxxxxxxxxx |       1.0000 |       1.0000 |       1.0000 |xxxxxxxxxxxxx |xxxxxxxxxxxxx |xxxxxxxxxxxxx |xxxxxxxxxxxxx |       1.0000 |       1.0000 |       1.0000 |xxxxxxxxxxxxx |xxxxxxxxxxxxx |xxxxxxxxxxxxx |xxxxxxxxxxxxx |       1.0000 |       1.0000 |       1.0000 |xxxxxxxxxxxxx |xxxxxxxxxxxxx |xxxxxxxxxxxxx |xxxxxxxxxxxxx |       1.0000 |       1.0000 |       1.0000 |xxxxxxxxxxxxx |xxxxxxxxxxxxx |xxxxxxxxxxxxx |xxxxxxxxxxxxx |       1.0000 |       1.0000 |       1.0000 |xxxxxxxxxxxxx |xxxxxxxxxxxxx |xxxxxxxxxxxxx |xxxxxxxxxxxxx |       1.0000 |       1.0000 |       1.0000 |xxxxxxxxxxxxx |xxxxxxxxxxxxx |xxxxxxxxxxxxx |xxxxxxxxxxxxx |       1.0000 |       1.0000 |       1.0000 |xxxxxxxxxxxxx |xxxxxxxxxxxxx |xxxxxxxxxxxxx |xxxxxxxxxxxxx |       1.0000 |       1.0000 |       1.0000 |
bpred_bimod.bpred_jr_non_ras_rate.PP       <error: |      <error: |      <error: |xxxxxxxxxxxxx |xxxxxxxxxxxxx |xxxxxxxxxxxxx |xxxxxxxxxxxxx |      <error: |      <error: |      <error: |xxxxxxxxxxxxx |xxxxxxxxxxxxx |xxxxxxxxxxxxx |xxxxxxxxxxxxx |      <error: |      <error: |      <error: |xxxxxxxxxxxxx |xxxxxxxxxxxxx |xxxxxxxxxxxxx |xxxxxxxxxxxxx |      <error: |      <error: |      <error: |xxxxxxxxxxxxx |xxxxxxxxxxxxx |xxxxxxxxxxxxx |xxxxxxxxxxxxx |      <error: |      <error: |      <error: |xxxxxxxxxxxxx |xxxxxxxxxxxxx |xxxxxxxxxxxxx |xxxxxxxxxxxxx |      <error: |      <error: |      <error: |xxxxxxxxxxxxx |xxxxxxxxxxxxx |xxxxxxxxxxxxx |xxxxxxxxxxxxx |      <error: |      <error: |      <error: |xxxxxxxxxxxxx |xxxxxxxxxxxxx |xxxxxxxxxxxxx |xxxxxxxxxxxxx |      <error: |      <error: |      <error: |xxxxxxxxxxxxx |xxxxxxxxxxxxx |xxxxxxxxxxxxx |xxxxxxxxxxxxx |       0.0000 |       0.0000 |       0.0000 |xxxxxxxxxxxxx |xxxxxxxxxxxxx |xxxxxxxxxxxxx |xxxxxxxxxxxxx |       0.0000 |       0.0000 |       0.0000 |xxxxxxxxxxxxx |xxxxxxxxxxxxx |xxxxxxxxxxxxx |xxxxxxxxxxxxx |       0.0000 |       0.0000 |       0.0000 |
bpred_bimod.retstack_pushes                  12655 |        12655 |        12655 |xxxxxxxxxxxxx |xxxxxxxxxxxxx |xxxxxxxxxxxxx |xxxxxxxxxxxxx |        24952 |        24952 |        24952 |xxxxxxxxxxxxx |xxxxxxxxxxxxx |xxxxxxxxxxxxx |xxxxxxxxxxxxx |        49528 |        49528 |        49528 |xxxxxxxxxxxxx |xxxxxxxxxxxxx |xxxxxxxxxxxxx |xxxxxxxxxxxxx |        98680 |        98680 |        98680 |xxxxxxxxxxxxx |xxxxxxxxxxxxx |xxxxxxxxxxxxx |xxxxxxxxxxxxx |       196984 |       196984 |       196984 |xxxxxxxxxxxxx |xxxxxxxxxxxxx |xxxxxxxxxxxxx |xxxxxxxxxxxxx |       393592 |       393592 |       393592 |xxxxxxxxxxxxx |xxxxxxxxxxxxx |xxxxxxxxxxxxx |xxxxxxxxxxxxx |       786808 |       786808 |       786808 |xxxxxxxxxxxxx |xxxxxxxxxxxxx |xxxxxxxxxxxxx |xxxxxxxxxxxxx |      1573240 |      1573240 |      1573240 |xxxxxxxxxxxxx |xxxxxxxxxxxxx |xxxxxxxxxxxxx |xxxxxxxxxxxxx |      3146106 |      3146106 |      3146106 |xxxxxxxxxxxxx |xxxxxxxxxxxxx |xxxxxxxxxxxxx |xxxxxxxxxxxxx |      6291834 |      6291834 |      6291834 |xxxxxxxxxxxxx |xxxxxxxxxxxxx |xxxxxxxxxxxxx |xxxxxxxxxxxxx |     12583290 |     12583290 |     12583290 |
bpred_bimod.retstack_pops                    12653 |        12653 |        12653 |xxxxxxxxxxxxx |xxxxxxxxxxxxx |xxxxxxxxxxxxx |xxxxxxxxxxxxx |        24950 |        24950 |        24950 |xxxxxxxxxxxxx |xxxxxxxxxxxxx |xxxxxxxxxxxxx |xxxxxxxxxxxxx |        49526 |        49526 |        49526 |xxxxxxxxxxxxx |xxxxxxxxxxxxx |xxxxxxxxxxxxx |xxxxxxxxxxxxx |        98678 |        98678 |        98678 |xxxxxxxxxxxxx |xxxxxxxxxxxxx |xxxxxxxxxxxxx |xxxxxxxxxxxxx |       196982 |       196982 |       196982 |xxxxxxxxxxxxx |xxxxxxxxxxxxx |xxxxxxxxxxxxx |xxxxxxxxxxxxx |       393590 |       393590 |       393590 |xxxxxxxxxxxxx |xxxxxxxxxxxxx |xxxxxxxxxxxxx |xxxxxxxxxxxxx |       786806 |       786806 |       786806 |xxxxxxxxxxxxx |xxxxxxxxxxxxx |xxxxxxxxxxxxx |xxxxxxxxxxxxx |      1573238 |      1573238 |      1573238 |xxxxxxxxxxxxx |xxxxxxxxxxxxx |xxxxxxxxxxxxx |xxxxxxxxxxxxx |      3146104 |      3146104 |      3146104 |xxxxxxxxxxxxx |xxxxxxxxxxxxx |xxxxxxxxxxxxx |xxxxxxxxxxxxx |      6291832 |      6291832 |      6291832 |xxxxxxxxxxxxx |xxxxxxxxxxxxx |xxxxxxxxxxxxx |xxxxxxxxxxxxx |     12583288 |     12583288 |     12583288 |
bpred_bimod.used_ras.PP                      12653 |        12653 |        12653 |xxxxxxxxxxxxx |xxxxxxxxxxxxx |xxxxxxxxxxxxx |xxxxxxxxxxxxx |        24950 |        24950 |        24950 |xxxxxxxxxxxxx |xxxxxxxxxxxxx |xxxxxxxxxxxxx |xxxxxxxxxxxxx |        49526 |        49526 |        49526 |xxxxxxxxxxxxx |xxxxxxxxxxxxx |xxxxxxxxxxxxx |xxxxxxxxxxxxx |        98678 |        98678 |        98678 |xxxxxxxxxxxxx |xxxxxxxxxxxxx |xxxxxxxxxxxxx |xxxxxxxxxxxxx |       196982 |       196982 |       196982 |xxxxxxxxxxxxx |xxxxxxxxxxxxx |xxxxxxxxxxxxx |xxxxxxxxxxxxx |       393590 |       393590 |       393590 |xxxxxxxxxxxxx |xxxxxxxxxxxxx |xxxxxxxxxxxxx |xxxxxxxxxxxxx |       786806 |       786806 |       786806 |xxxxxxxxxxxxx |xxxxxxxxxxxxx |xxxxxxxxxxxxx |xxxxxxxxxxxxx |      1573238 |      1573238 |      1573238 |xxxxxxxxxxxxx |xxxxxxxxxxxxx |xxxxxxxxxxxxx |xxxxxxxxxxxxx |      3146104 |      3146104 |      3146104 |xxxxxxxxxxxxx |xxxxxxxxxxxxx |xxxxxxxxxxxxx |xxxxxxxxxxxxx |      6291832 |      6291832 |      6291832 |xxxxxxxxxxxxx |xxxxxxxxxxxxx |xxxxxxxxxxxxx |xxxxxxxxxxxxx |     12583288 |     12583288 |     12583288 |
bpred_bimod.ras_hits.PP                      12653 |        12653 |        12653 |xxxxxxxxxxxxx |xxxxxxxxxxxxx |xxxxxxxxxxxxx |xxxxxxxxxxxxx |        24949 |        24949 |        24949 |xxxxxxxxxxxxx |xxxxxxxxxxxxx |xxxxxxxxxxxxx |xxxxxxxxxxxxx |        49525 |        49525 |        49525 |xxxxxxxxxxxxx |xxxxxxxxxxxxx |xxxxxxxxxxxxx |xxxxxxxxxxxxx |        98677 |        98677 |        98677 |xxxxxxxxxxxxx |xxxxxxxxxxxxx |xxxxxxxxxxxxx |xxxxxxxxxxxxx |       196981 |       196981 |       196981 |xxxxxxxxxxxxx |xxxxxxxxxxxxx |xxxxxxxxxxxxx |xxxxxxxxxxxxx |       393589 |       393589 |       393589 |xxxxxxxxxxxxx |xxxxxxxxxxxxx |xxxxxxxxxxxxx |xxxxxxxxxxxxx |       786805 |       786805 |       786805 |xxxxxxxxxxxxx |xxxxxxxxxxxxx |xxxxxxxxxxxxx |xxxxxxxxxxxxx |      1573237 |      1573237 |      1573237 |xxxxxxxxxxxxx |xxxxxxxxxxxxx |xxxxxxxxxxxxx |xxxxxxxxxxxxx |      3146104 |      3146104 |      3146104 |xxxxxxxxxxxxx |xxxxxxxxxxxxx |xxxxxxxxxxxxx |xxxxxxxxxxxxx |      6291832 |      6291832 |      6291832 |xxxxxxxxxxxxx |xxxxxxxxxxxxx |xxxxxxxxxxxxx |xxxxxxxxxxxxx |     12583288 |     12583288 |     12583288 |
bpred_bimod.ras_rate.PP                     1.0000 |       1.0000 |       1.0000 |xxxxxxxxxxxxx |xxxxxxxxxxxxx |xxxxxxxxxxxxx |xxxxxxxxxxxxx |       1.0000 |       1.0000 |       1.0000 |xxxxxxxxxxxxx |xxxxxxxxxxxxx |xxxxxxxxxxxxx |xxxxxxxxxxxxx |       1.0000 |       1.0000 |       1.0000 |xxxxxxxxxxxxx |xxxxxxxxxxxxx |xxxxxxxxxxxxx |xxxxxxxxxxxxx |       1.0000 |       1.0000 |       1.0000 |xxxxxxxxxxxxx |xxxxxxxxxxxxx |xxxxxxxxxxxxx |xxxxxxxxxxxxx |       1.0000 |       1.0000 |       1.0000 |xxxxxxxxxxxxx |xxxxxxxxxxxxx |xxxxxxxxxxxxx |xxxxxxxxxxxxx |       1.0000 |       1.0000 |       1.0000 |xxxxxxxxxxxxx |xxxxxxxxxxxxx |xxxxxxxxxxxxx |xxxxxxxxxxxxx |       1.0000 |       1.0000 |       1.0000 |xxxxxxxxxxxxx |xxxxxxxxxxxxx |xxxxxxxxxxxxx |xxxxxxxxxxxxx |       1.0000 |       1.0000 |       1.0000 |xxxxxxxxxxxxx |xxxxxxxxxxxxx |xxxxxxxxxxxxx |xxxxxxxxxxxxx |       1.0000 |       1.0000 |       1.0000 |xxxxxxxxxxxxx |xxxxxxxxxxxxx |xxxxxxxxxxxxx |xxxxxxxxxxxxx |       1.0000 |       1.0000 |       1.0000 |xxxxxxxxxxxxx |xxxxxxxxxxxxx |xxxxxxxxxxxxx |xxxxxxxxxxxxx |       1.0000 |       1.0000 |       1.0000 |
bpred_2lev.lookups                   xxxxxxxxxxxxx |xxxxxxxxxxxxx |xxxxxxxxxxxxx |       169557 |       169557 |       169557 |       169557 |xxxxxxxxxxxxx |xxxxxxxxxxxxx |xxxxxxxxxxxxx |       357028 |       357028 |       357028 |       357028 |xxxxxxxxxxxxx |xxxxxxxxxxxxx |xxxxxxxxxxxxx |       751920 |       751920 |       751920 |       751920 |xxxxxxxxxxxxx |xxxxxxxxxxxxx |xxxxxxxxxxxxx |      1581403 |      1581403 |      1581403 |      1581403 |xxxxxxxxxxxxx |xxxxxxxxxxxxx |xxxxxxxxxxxxx |      3327047 |      3327047 |      3327047 |      3327047 |xxxxxxxxxxxxx |xxxxxxxxxxxxx |xxxxxxxxxxxxx |      6975550 |      6975550 |      6975550 |      6975550 |xxxxxxxxxxxxx |xxxxxxxxxxxxx |xxxxxxxxxxxxx |     14612970 |     14612970 |     14612970 |     14612970 |xxxxxxxxxxxxx |xxxxxxxxxxxxx |xxxxxxxxxxxxx |     30519216 |     30519216 |     30519216 |     30519216 |xxxxxxxxxxxxx |xxxxxxxxxxxxx |xxxxxxxxxxxxx |     63689876 |     63689876 |     63689876 |     63689876 |xxxxxxxxxxxxx |xxxxxxxxxxxxx |xxxxxxxxxxxxx |    132560562 |    132560562 |    132560562 |    132560562 |xxxxxxxxxxxxx |xxxxxxxxxxxxx |xxxxxxxxxxxxx |    275721250 |    275721250 |    275721250 |    275721250 |
[...]
bpred_2lev.retstack_pushes           xxxxxxxxxxxxx |xxxxxxxxxxxxx |xxxxxxxxxxxxx |        12655 |        12655 |        12655 |        12655 |xxxxxxxxxxxxx |xxxxxxxxxxxxx |xxxxxxxxxxxxx |        24952 |        24952 |        24952 |        24952 |xxxxxxxxxxxxx |xxxxxxxxxxxxx |xxxxxxxxxxxxx |        49528 |        49528 |        49528 |        49528 |xxxxxxxxxxxxx |xxxxxxxxxxxxx |xxxxxxxxxxxxx |        98680 |        98680 |        98680 |        98680 |xxxxxxxxxxxxx |xxxxxxxxxxxxx |xxxxxxxxxxxxx |       196984 |       196984 |       196984 |       196984 |xxxxxxxxxxxxx |xxxxxxxxxxxxx |xxxxxxxxxxxxx |       393592 |       393592 |       393592 |       393592 |xxxxxxxxxxxxx |xxxxxxxxxxxxx |xxxxxxxxxxxxx |       786808 |       786808 |       786808 |       786808 |xxxxxxxxxxxxx |xxxxxxxxxxxxx |xxxxxxxxxxxxx |      1573240 |      1573240 |      1573240 |      1573240 |xxxxxxxxxxxxx |xxxxxxxxxxxxx |xxxxxxxxxxxxx |      3146106 |      3146106 |      3146106 |      3146106 |xxxxxxxxxxxxx |xxxxxxxxxxxxx |xxxxxxxxxxxxx |      6291834 |      6291834 |      6291834 |      6291834 |xxxxxxxxxxxxx |xxxxxxxxxxxxx |xxxxxxxxxxxxx |     12583290 |     12583290 |     12583290 |     12583290 |
bpred_2lev.retstack_pops             xxxxxxxxxxxxx |xxxxxxxxxxxxx |xxxxxxxxxxxxx |        12653 |        12653 |        12653 |        12653 |xxxxxxxxxxxxx |xxxxxxxxxxxxx |xxxxxxxxxxxxx |        24950 |        24950 |        24950 |        24950 |xxxxxxxxxxxxx |xxxxxxxxxxxxx |xxxxxxxxxxxxx |        49526 |        49526 |        49526 |        49526 |xxxxxxxxxxxxx |xxxxxxxxxxxxx |xxxxxxxxxxxxx |        98678 |        98678 |        98678 |        98678 |xxxxxxxxxxxxx |xxxxxxxxxxxxx |xxxxxxxxxxxxx |       196982 |       196982 |       196982 |       196982 |xxxxxxxxxxxxx |xxxxxxxxxxxxx |xxxxxxxxxxxxx |       393590 |       393590 |       393590 |       393590 |xxxxxxxxxxxxx |xxxxxxxxxxxxx |xxxxxxxxxxxxx |       786806 |       786806 |       786806 |       786806 |xxxxxxxxxxxxx |xxxxxxxxxxxxx |xxxxxxxxxxxxx |      1573238 |      1573238 |      1573238 |      1573238 |xxxxxxxxxxxxx |xxxxxxxxxxxxx |xxxxxxxxxxxxx |      3146104 |      3146104 |      3146104 |      3146104 |xxxxxxxxxxxxx |xxxxxxxxxxxxx |xxxxxxxxxxxxx |      6291832 |      6291832 |      6291832 |      6291832 |xxxxxxxxxxxxx |xxxxxxxxxxxxx |xxxxxxxxxxxxx |     12583288 |     12583288 |     12583288 |     12583288 |
bpred_2lev.used_ras.PP               xxxxxxxxxxxxx |xxxxxxxxxxxxx |xxxxxxxxxxxxx |        12653 |        12653 |        12653 |        12653 |xxxxxxxxxxxxx |xxxxxxxxxxxxx |xxxxxxxxxxxxx |        24950 |        24950 |        24950 |        24950 |xxxxxxxxxxxxx |xxxxxxxxxxxxx |xxxxxxxxxxxxx |        49526 |        49526 |        49526 |        49526 |xxxxxxxxxxxxx |xxxxxxxxxxxxx |xxxxxxxxxxxxx |        98678 |        98678 |        98678 |        98678 |xxxxxxxxxxxxx |xxxxxxxxxxxxx |xxxxxxxxxxxxx |       196982 |       196982 |       196982 |       196982 |xxxxxxxxxxxxx |xxxxxxxxxxxxx |xxxxxxxxxxxxx |       393590 |       393590 |       393590 |       393590 |xxxxxxxxxxxxx |xxxxxxxxxxxxx |xxxxxxxxxxxxx |       786806 |       786806 |       786806 |       786806 |xxxxxxxxxxxxx |xxxxxxxxxxxxx |xxxxxxxxxxxxx |      1573238 |      1573238 |      1573238 |      1573238 |xxxxxxxxxxxxx |xxxxxxxxxxxxx |xxxxxxxxxxxxx |      3146104 |      3146104 |      3146104 |      3146104 |xxxxxxxxxxxxx |xxxxxxxxxxxxx |xxxxxxxxxxxxx |      6291832 |      6291832 |      6291832 |      6291832 |xxxxxxxxxxxxx |xxxxxxxxxxxxx |xxxxxxxxxxxxx |     12583288 |     12583288 |     12583288 |     12583288 |
bpred_2lev.ras_hits.PP               xxxxxxxxxxxxx |xxxxxxxxxxxxx |xxxxxxxxxxxxx |        12653 |        12653 |        12653 |        12653 |xxxxxxxxxxxxx |xxxxxxxxxxxxx |xxxxxxxxxxxxx |        24949 |        24949 |        24949 |        24949 |xxxxxxxxxxxxx |xxxxxxxxxxxxx |xxxxxxxxxxxxx |        49525 |        49525 |        49525 |        49525 |xxxxxxxxxxxxx |xxxxxxxxxxxxx |xxxxxxxxxxxxx |        98677 |        98677 |        98677 |        98677 |xxxxxxxxxxxxx |xxxxxxxxxxxxx |xxxxxxxxxxxxx |       196981 |       196981 |       196981 |       196981 |xxxxxxxxxxxxx |xxxxxxxxxxxxx |xxxxxxxxxxxxx |       393589 |       393589 |       393589 |       393589 |xxxxxxxxxxxxx |xxxxxxxxxxxxx |xxxxxxxxxxxxx |       786805 |       786805 |       786805 |       786805 |xxxxxxxxxxxxx |xxxxxxxxxxxxx |xxxxxxxxxxxxx |      1573237 |      1573237 |      1573237 |      1573237 |xxxxxxxxxxxxx |xxxxxxxxxxxxx |xxxxxxxxxxxxx |      3146104 |      3146104 |      3146104 |      3146104 |xxxxxxxxxxxxx |xxxxxxxxxxxxx |xxxxxxxxxxxxx |      6291832 |      6291832 |      6291832 |      6291832 |xxxxxxxxxxxxx |xxxxxxxxxxxxx |xxxxxxxxxxxxx |     12583288 |     12583288 |     12583288 |     12583288 |
bpred_2lev.ras_rate.PP               xxxxxxxxxxxxx |xxxxxxxxxxxxx |xxxxxxxxxxxxx |       1.0000 |       1.0000 |       1.0000 |       1.0000 |xxxxxxxxxxxxx |xxxxxxxxxxxxx |xxxxxxxxxxxxx |       1.0000 |       1.0000 |       1.0000 |       1.0000 |xxxxxxxxxxxxx |xxxxxxxxxxxxx |xxxxxxxxxxxxx |       1.0000 |       1.0000 |       1.0000 |       1.0000 |xxxxxxxxxxxxx |xxxxxxxxxxxxx |xxxxxxxxxxxxx |       1.0000 |       1.0000 |       1.0000 |       1.0000 |xxxxxxxxxxxxx |xxxxxxxxxxxxx |xxxxxxxxxxxxx |       1.0000 |       1.0000 |       1.0000 |       1.0000 |xxxxxxxxxxxxx |xxxxxxxxxxxxx |xxxxxxxxxxxxx |       1.0000 |       1.0000 |       1.0000 |       1.0000 |xxxxxxxxxxxxx |xxxxxxxxxxxxx |xxxxxxxxxxxxx |       1.0000 |       1.0000 |       1.0000 |       1.0000 |xxxxxxxxxxxxx |xxxxxxxxxxxxx |xxxxxxxxxxxxx |       1.0000 |       1.0000 |       1.0000 |       1.0000 |xxxxxxxxxxxxx |xxxxxxxxxxxxx |xxxxxxxxxxxxx |       1.0000 |       1.0000 |       1.0000 |       1.0000 |xxxxxxxxxxxxx |xxxxxxxxxxxxx |xxxxxxxxxxxxx |       1.0000 |       1.0000 |       1.0000 |       1.0000 |xxxxxxxxxxxxx |xxxxxxxxxxxxx |xxxxxxxxxxxxx |       1.0000 |       1.0000 |       1.0000 |       1.0000 |

Command list: 
	sslittle-na-sstrix-gcc -Wall -O3 -funroll-loops -finline-functions  -DRANDOM_SIZE=4096 -DSEED=0 -DSORT=cache4_heapsort cache4_heapsort1206631522.c simpleMain.c -o cache4_heapsort2126424996
	sim-cache -cache:dl1 dl1:256:32:1:l -cache:dl2 dl2:131072:32:1:l -cache:il1 il1:256:32:1:l -cache:il2 dl2 cache4_heapsort2126424996
	sim-cache -cache:dl1 dl1:256:32:1:l -cache:dl2 dl2:65536:32:1:l -cache:il1 il1:256:32:1:l -cache:il2 dl2 cache4_heapsort2126424996
	sim-cache -cache:dl1 dl1:1:32:256:l -cache:dl2 dl2:1:32:131072:l -cache:il1 il1:1:32:256:l -cache:il2 dl2 cache4_heapsort2126424996
	sim-cache -cache:dl1 dl1:1:32:256:l -cache:dl2 dl2:1:32:65536:l -cache:il1 il1:1:32:256:l -cache:il2 dl2 cache4_heapsort2126424996
	sim-bpred -bpred bimod -bpred:bimod 512 cache4_heapsort2126424996
	sim-bpred -bpred bimod -bpred:bimod 1024 cache4_heapsort2126424996
	sim-bpred -bpred bimod -bpred:bimod 2048 cache4_heapsort2126424996
	sim-bpred -bpred 2lev -bpred:2lev 1 512 10 1 cache4_heapsort2126424996
	sim-bpred -bpred 2lev -bpred:2lev 1 1024 10 1 cache4_heapsort2126424996
	sim-bpred -bpred 2lev -bpred:2lev 1 2048 10 1 cache4_heapsort2126424996
	sim-bpred -bpred 2lev -bpred:2lev 1 4096 10 1 cache4_heapsort2126424996
	sslittle-na-sstrix-gcc -Wall -O3 -funroll-loops -finline-functions  -DRANDOM_SIZE=8192 -DSEED=0 -DSORT=cache4_heapsort cache4_heapsort1206631522.c simpleMain.c -o cache4_heapsort2126424996
	sim-cache -cache:dl1 dl1:256:32:1:l -cache:dl2 dl2:131072:32:1:l -cache:il1 il1:256:32:1:l -cache:il2 dl2 cache4_heapsort2126424996
	sim-cache -cache:dl1 dl1:256:32:1:l -cache:dl2 dl2:65536:32:1:l -cache:il1 il1:256:32:1:l -cache:il2 dl2 cache4_heapsort2126424996
	sim-cache -cache:dl1 dl1:1:32:256:l -cache:dl2 dl2:1:32:131072:l -cache:il1 il1:1:32:256:l -cache:il2 dl2 cache4_heapsort2126424996
	sim-cache -cache:dl1 dl1:1:32:256:l -cache:dl2 dl2:1:32:65536:l -cache:il1 il1:1:32:256:l -cache:il2 dl2 cache4_heapsort2126424996
	sim-bpred -bpred bimod -bpred:bimod 512 cache4_heapsort2126424996
	sim-bpred -bpred bimod -bpred:bimod 1024 cache4_heapsort2126424996
	sim-bpred -bpred bimod -bpred:bimod 2048 cache4_heapsort2126424996
	sim-bpred -bpred 2lev -bpred:2lev 1 512 10 1 cache4_heapsort2126424996
	sim-bpred -bpred 2lev -bpred:2lev 1 1024 10 1 cache4_heapsort2126424996
	sim-bpred -bpred 2lev -bpred:2lev 1 2048 10 1 cache4_heapsort2126424996
	sim-bpred -bpred 2lev -bpred:2lev 1 4096 10 1 cache4_heapsort2126424996
	sslittle-na-sstrix-gcc -Wall -O3 -funroll-loops -finline-functions  -DRANDOM_SIZE=16384 -DSEED=0 -DSORT=cache4_heapsort cache4_heapsort1206631522.c simpleMain.c -o cache4_heapsort2126424996
	sim-cache -cache:dl1 dl1:256:32:1:l -cache:dl2 dl2:131072:32:1:l -cache:il1 il1:256:32:1:l -cache:il2 dl2 cache4_heapsort2126424996
	sim-cache -cache:dl1 dl1:256:32:1:l -cache:dl2 dl2:65536:32:1:l -cache:il1 il1:256:32:1:l -cache:il2 dl2 cache4_heapsort2126424996
	sim-cache -cache:dl1 dl1:1:32:256:l -cache:dl2 dl2:1:32:131072:l -cache:il1 il1:1:32:256:l -cache:il2 dl2 cache4_heapsort2126424996
	sim-cache -cache:dl1 dl1:1:32:256:l -cache:dl2 dl2:1:32:65536:l -cache:il1 il1:1:32:256:l -cache:il2 dl2 cache4_heapsort2126424996
	sim-bpred -bpred bimod -bpred:bimod 512 cache4_heapsort2126424996
	sim-bpred -bpred bimod -bpred:bimod 1024 cache4_heapsort2126424996
	sim-bpred -bpred bimod -bpred:bimod 2048 cache4_heapsort2126424996
	sim-bpred -bpred 2lev -bpred:2lev 1 512 10 1 cache4_heapsort2126424996
	sim-bpred -bpred 2lev -bpred:2lev 1 1024 10 1 cache4_heapsort2126424996
	sim-bpred -bpred 2lev -bpred:2lev 1 2048 10 1 cache4_heapsort2126424996
	sim-bpred -bpred 2lev -bpred:2lev 1 4096 10 1 cache4_heapsort2126424996
	sslittle-na-sstrix-gcc -Wall -O3 -funroll-loops -finline-functions  -DRANDOM_SIZE=32768 -DSEED=0 -DSORT=cache4_heapsort cache4_heapsort1206631522.c simpleMain.c -o cache4_heapsort2126424996
	sim-cache -cache:dl1 dl1:256:32:1:l -cache:dl2 dl2:131072:32:1:l -cache:il1 il1:256:32:1:l -cache:il2 dl2 cache4_heapsort2126424996
	sim-cache -cache:dl1 dl1:256:32:1:l -cache:dl2 dl2:65536:32:1:l -cache:il1 il1:256:32:1:l -cache:il2 dl2 cache4_heapsort2126424996
	sim-cache -cache:dl1 dl1:1:32:256:l -cache:dl2 dl2:1:32:131072:l -cache:il1 il1:1:32:256:l -cache:il2 dl2 cache4_heapsort2126424996
	sim-cache -cache:dl1 dl1:1:32:256:l -cache:dl2 dl2:1:32:65536:l -cache:il1 il1:1:32:256:l -cache:il2 dl2 cache4_heapsort2126424996
	sim-bpred -bpred bimod -bpred:bimod 512 cache4_heapsort2126424996
	sim-bpred -bpred bimod -bpred:bimod 1024 cache4_heapsort2126424996
	sim-bpred -bpred bimod -bpred:bimod 2048 cache4_heapsort2126424996
	sim-bpred -bpred 2lev -bpred:2lev 1 512 10 1 cache4_heapsort2126424996
	sim-bpred -bpred 2lev -bpred:2lev 1 1024 10 1 cache4_heapsort2126424996
	sim-bpred -bpred 2lev -bpred:2lev 1 2048 10 1 cache4_heapsort2126424996
	sim-bpred -bpred 2lev -bpred:2lev 1 4096 10 1 cache4_heapsort2126424996
	sslittle-na-sstrix-gcc -Wall -O3 -funroll-loops -finline-functions  -DRANDOM_SIZE=65536 -DSEED=0 -DSORT=cache4_heapsort cache4_heapsort1206631522.c simpleMain.c -o cache4_heapsort2126424996
	sim-cache -cache:dl1 dl1:256:32:1:l -cache:dl2 dl2:131072:32:1:l -cache:il1 il1:256:32:1:l -cache:il2 dl2 cache4_heapsort2126424996
	sim-cache -cache:dl1 dl1:256:32:1:l -cache:dl2 dl2:65536:32:1:l -cache:il1 il1:256:32:1:l -cache:il2 dl2 cache4_heapsort2126424996
	sim-cache -cache:dl1 dl1:1:32:256:l -cache:dl2 dl2:1:32:131072:l -cache:il1 il1:1:32:256:l -cache:il2 dl2 cache4_heapsort2126424996
	sim-cache -cache:dl1 dl1:1:32:256:l -cache:dl2 dl2:1:32:65536:l -cache:il1 il1:1:32:256:l -cache:il2 dl2 cache4_heapsort2126424996
	sim-bpred -bpred bimod -bpred:bimod 512 cache4_heapsort2126424996
	sim-bpred -bpred bimod -bpred:bimod 1024 cache4_heapsort2126424996
	sim-bpred -bpred bimod -bpred:bimod 2048 cache4_heapsort2126424996
	sim-bpred -bpred 2lev -bpred:2lev 1 512 10 1 cache4_heapsort2126424996
	sim-bpred -bpred 2lev -bpred:2lev 1 1024 10 1 cache4_heapsort2126424996
	sim-bpred -bpred 2lev -bpred:2lev 1 2048 10 1 cache4_heapsort2126424996
	sim-bpred -bpred 2lev -bpred:2lev 1 4096 10 1 cache4_heapsort2126424996
	sslittle-na-sstrix-gcc -Wall -O3 -funroll-loops -finline-functions  -DRANDOM_SIZE=131072 -DSEED=0 -DSORT=cache4_heapsort cache4_heapsort1206631522.c simpleMain.c -o cache4_heapsort2126424996
	sim-cache -cache:dl1 dl1:256:32:1:l -cache:dl2 dl2:131072:32:1:l -cache:il1 il1:256:32:1:l -cache:il2 dl2 cache4_heapsort2126424996
	sim-cache -cache:dl1 dl1:256:32:1:l -cache:dl2 dl2:65536:32:1:l -cache:il1 il1:256:32:1:l -cache:il2 dl2 cache4_heapsort2126424996
	sim-cache -cache:dl1 dl1:1:32:256:l -cache:dl2 dl2:1:32:131072:l -cache:il1 il1:1:32:256:l -cache:il2 dl2 cache4_heapsort2126424996
	sim-cache -cache:dl1 dl1:1:32:256:l -cache:dl2 dl2:1:32:65536:l -cache:il1 il1:1:32:256:l -cache:il2 dl2 cache4_heapsort2126424996
	sim-bpred -bpred bimod -bpred:bimod 512 cache4_heapsort2126424996
	sim-bpred -bpred bimod -bpred:bimod 1024 cache4_heapsort2126424996
	sim-bpred -bpred bimod -bpred:bimod 2048 cache4_heapsort2126424996
	sim-bpred -bpred 2lev -bpred:2lev 1 512 10 1 cache4_heapsort2126424996
	sim-bpred -bpred 2lev -bpred:2lev 1 1024 10 1 cache4_heapsort2126424996
	sim-bpred -bpred 2lev -bpred:2lev 1 2048 10 1 cache4_heapsort2126424996
	sim-bpred -bpred 2lev -bpred:2lev 1 4096 10 1 cache4_heapsort2126424996
	sslittle-na-sstrix-gcc -Wall -O3 -funroll-loops -finline-functions  -DRANDOM_SIZE=262144 -DSEED=0 -DSORT=cache4_heapsort cache4_heapsort1206631522.c simpleMain.c -o cache4_heapsort2126424996
	sim-cache -cache:dl1 dl1:256:32:1:l -cache:dl2 dl2:131072:32:1:l -cache:il1 il1:256:32:1:l -cache:il2 dl2 cache4_heapsort2126424996
	sim-cache -cache:dl1 dl1:256:32:1:l -cache:dl2 dl2:65536:32:1:l -cache:il1 il1:256:32:1:l -cache:il2 dl2 cache4_heapsort2126424996
	sim-cache -cache:dl1 dl1:1:32:256:l -cache:dl2 dl2:1:32:131072:l -cache:il1 il1:1:32:256:l -cache:il2 dl2 cache4_heapsort2126424996
	sim-cache -cache:dl1 dl1:1:32:256:l -cache:dl2 dl2:1:32:65536:l -cache:il1 il1:1:32:256:l -cache:il2 dl2 cache4_heapsort2126424996
	sim-bpred -bpred bimod -bpred:bimod 512 cache4_heapsort2126424996
	sim-bpred -bpred bimod -bpred:bimod 1024 cache4_heapsort2126424996
	sim-bpred -bpred bimod -bpred:bimod 2048 cache4_heapsort2126424996
	sim-bpred -bpred 2lev -bpred:2lev 1 512 10 1 cache4_heapsort2126424996
	sim-bpred -bpred 2lev -bpred:2lev 1 1024 10 1 cache4_heapsort2126424996
	sim-bpred -bpred 2lev -bpred:2lev 1 2048 10 1 cache4_heapsort2126424996
	sim-bpred -bpred 2lev -bpred:2lev 1 4096 10 1 cache4_heapsort2126424996
	sslittle-na-sstrix-gcc -Wall -O3 -funroll-loops -finline-functions  -DRANDOM_SIZE=524288 -DSEED=0 -DSORT=cache4_heapsort cache4_heapsort1206631522.c simpleMain.c -o cache4_heapsort2126424996
	sim-cache -cache:dl1 dl1:256:32:1:l -cache:dl2 dl2:131072:32:1:l -cache:il1 il1:256:32:1:l -cache:il2 dl2 cache4_heapsort2126424996
	sim-cache -cache:dl1 dl1:256:32:1:l -cache:dl2 dl2:65536:32:1:l -cache:il1 il1:256:32:1:l -cache:il2 dl2 cache4_heapsort2126424996
	sim-cache -cache:dl1 dl1:1:32:256:l -cache:dl2 dl2:1:32:131072:l -cache:il1 il1:1:32:256:l -cache:il2 dl2 cache4_heapsort2126424996
	sim-cache -cache:dl1 dl1:1:32:256:l -cache:dl2 dl2:1:32:65536:l -cache:il1 il1:1:32:256:l -cache:il2 dl2 cache4_heapsort2126424996
	sim-bpred -bpred bimod -bpred:bimod 512 cache4_heapsort2126424996
	sim-bpred -bpred bimod -bpred:bimod 1024 cache4_heapsort2126424996
	sim-bpred -bpred bimod -bpred:bimod 2048 cache4_heapsort2126424996
	sim-bpred -bpred 2lev -bpred:2lev 1 512 10 1 cache4_heapsort2126424996
	sim-bpred -bpred 2lev -bpred:2lev 1 1024 10 1 cache4_heapsort2126424996
	sim-bpred -bpred 2lev -bpred:2lev 1 2048 10 1 cache4_heapsort2126424996
	sim-bpred -bpred 2lev -bpred:2lev 1 4096 10 1 cache4_heapsort2126424996
	sslittle-na-sstrix-gcc -Wall -O3 -funroll-loops -finline-functions  -DRANDOM_SIZE=1048576 -DSEED=0 -DSORT=cache4_heapsort cache4_heapsort1206631522.c simpleMain.c -o cache4_heapsort2126424996
	sim-cache -cache:dl1 dl1:256:32:1:l -cache:dl2 dl2:131072:32:1:l -cache:il1 il1:256:32:1:l -cache:il2 dl2 cache4_heapsort2126424996
	sim-cache -cache:dl1 dl1:256:32:1:l -cache:dl2 dl2:65536:32:1:l -cache:il1 il1:256:32:1:l -cache:il2 dl2 cache4_heapsort2126424996
	sim-cache -cache:dl1 dl1:1:32:256:l -cache:dl2 dl2:1:32:131072:l -cache:il1 il1:1:32:256:l -cache:il2 dl2 cache4_heapsort2126424996
	sim-cache -cache:dl1 dl1:1:32:256:l -cache:dl2 dl2:1:32:65536:l -cache:il1 il1:1:32:256:l -cache:il2 dl2 cache4_heapsort2126424996
	sim-bpred -bpred bimod -bpred:bimod 512 cache4_heapsort2126424996
	sim-bpred -bpred bimod -bpred:bimod 1024 cache4_heapsort2126424996
	sim-bpred -bpred bimod -bpred:bimod 2048 cache4_heapsort2126424996
	sim-bpred -bpred 2lev -bpred:2lev 1 512 10 1 cache4_heapsort2126424996
	sim-bpred -bpred 2lev -bpred:2lev 1 1024 10 1 cache4_heapsort2126424996
	sim-bpred -bpred 2lev -bpred:2lev 1 2048 10 1 cache4_heapsort2126424996
	sim-bpred -bpred 2lev -bpred:2lev 1 4096 10 1 cache4_heapsort2126424996
	sslittle-na-sstrix-gcc -Wall -O3 -funroll-loops -finline-functions  -DRANDOM_SIZE=2097152 -DSEED=0 -DSORT=cache4_heapsort cache4_heapsort1206631522.c simpleMain.c -o cache4_heapsort2126424996
	sim-cache -cache:dl1 dl1:256:32:1:l -cache:dl2 dl2:131072:32:1:l -cache:il1 il1:256:32:1:l -cache:il2 dl2 cache4_heapsort2126424996
	sim-cache -cache:dl1 dl1:256:32:1:l -cache:dl2 dl2:65536:32:1:l -cache:il1 il1:256:32:1:l -cache:il2 dl2 cache4_heapsort2126424996
	sim-cache -cache:dl1 dl1:1:32:256:l -cache:dl2 dl2:1:32:131072:l -cache:il1 il1:1:32:256:l -cache:il2 dl2 cache4_heapsort2126424996
	sim-cache -cache:dl1 dl1:1:32:256:l -cache:dl2 dl2:1:32:65536:l -cache:il1 il1:1:32:256:l -cache:il2 dl2 cache4_heapsort2126424996
	sim-bpred -bpred bimod -bpred:bimod 512 cache4_heapsort2126424996
	sim-bpred -bpred bimod -bpred:bimod 1024 cache4_heapsort2126424996
	sim-bpred -bpred bimod -bpred:bimod 2048 cache4_heapsort2126424996
	sim-bpred -bpred 2lev -bpred:2lev 1 512 10 1 cache4_heapsort2126424996
	sim-bpred -bpred 2lev -bpred:2lev 1 1024 10 1 cache4_heapsort2126424996
	sim-bpred -bpred 2lev -bpred:2lev 1 2048 10 1 cache4_heapsort2126424996
	sim-bpred -bpred 2lev -bpred:2lev 1 4096 10 1 cache4_heapsort2126424996
	sslittle-na-sstrix-gcc -Wall -O3 -funroll-loops -finline-functions  -DRANDOM_SIZE=4194304 -DSEED=0 -DSORT=cache4_heapsort cache4_heapsort1206631522.c simpleMain.c -o cache4_heapsort2126424996
	sim-cache -cache:dl1 dl1:256:32:1:l -cache:dl2 dl2:131072:32:1:l -cache:il1 il1:256:32:1:l -cache:il2 dl2 cache4_heapsort2126424996
	sim-cache -cache:dl1 dl1:256:32:1:l -cache:dl2 dl2:65536:32:1:l -cache:il1 il1:256:32:1:l -cache:il2 dl2 cache4_heapsort2126424996
	sim-cache -cache:dl1 dl1:1:32:256:l -cache:dl2 dl2:1:32:131072:l -cache:il1 il1:1:32:256:l -cache:il2 dl2 cache4_heapsort2126424996
	sim-cache -cache:dl1 dl1:1:32:256:l -cache:dl2 dl2:1:32:65536:l -cache:il1 il1:1:32:256:l -cache:il2 dl2 cache4_heapsort2126424996
	sim-bpred -bpred bimod -bpred:bimod 512 cache4_heapsort2126424996
	sim-bpred -bpred bimod -bpred:bimod 1024 cache4_heapsort2126424996
	sim-bpred -bpred bimod -bpred:bimod 2048 cache4_heapsort2126424996
	sim-bpred -bpred 2lev -bpred:2lev 1 512 10 1 cache4_heapsort2126424996
	sim-bpred -bpred 2lev -bpred:2lev 1 1024 10 1 cache4_heapsort2126424996
	sim-bpred -bpred 2lev -bpred:2lev 1 2048 10 1 cache4_heapsort2126424996
	sim-bpred -bpred 2lev -bpred:2lev 1 4096 10 1 cache4_heapsort2126424996
