Fri Apr  2 23:34:31 2004
Run as: "./simple -L 16 cache4_heapsort"
-------------------------------------------------------------------------------------------------
sim-cache                                     4096 |         4096 |         4096 |         4096 |         8192 |         8192 |         8192 |         8192 |        16384 |        16384 |        16384 |        16384 |        32768 |        32768 |        32768 |        32768 |        65536 |        65536 |        65536 |        65536 |       131072 |       131072 |       131072 |       131072 |       262144 |       262144 |       262144 |       262144 |       524288 |       524288 |       524288 |       524288 |      1048576 |      1048576 |      1048576 |      1048576 |      2097152 |      2097152 |      2097152 |      2097152 |      4194304 |      4194304 |      4194304 |      4194304 |
-cache:dl1 dl1:512:16:1:l -cache:dl2 dl2:262144:16:1:l -cache:il1 il1:512:16:1:l -cache:il2 dl2
-cache:dl1 dl1:512:16:1:l -cache:dl2 dl2:131072:16:1:l -cache:il1 il1:512:16:1:l -cache:il2 dl2
-cache:dl1 dl1:1:16:512:l -cache:dl2 dl2:1:16:262144:l -cache:il1 il1:1:16:512:l -cache:il2 dl2
-cache:dl1 dl1:1:16:512:l -cache:dl2 dl2:1:16:131072:l -cache:il1 il1:1:16:512:l -cache:il2 dl2
-------------------------------------------------------------------------------------------------
sim_num_insn                               1009754 |      1009754 |      1009754 |      1009754 |      2138770 |      2138770 |      2138770 |      2138770 |      4529789 |      4529789 |      4529789 |      4529789 |      9574567 |      9574567 |      9574567 |      9574567 |     20236477 |     20236477 |     20236477 |     20236477 |     42599735 |     42599735 |     42599735 |     42599735 |     89582215 |     89582215 |     89582215 |     89582215 |    187706756 |    187706756 |    187706756 |    187706756 |    392997609 |    392997609 |    392997609 |    392997609 |    820189937 |    820189937 |    820189937 |    820189937 |   1710673117 |   1710673117 |   1710673117 |   1710673117 |
sim_num_refs                                283997 |       283997 |       283997 |       283997 |       592939 |       592939 |       592939 |       592939 |      1242942 |      1242942 |      1242942 |      1242942 |      2606851 |      2606851 |      2606851 |      2606851 |      5471874 |      5471874 |      5471874 |      5471874 |     11454583 |     11454583 |     11454583 |     11454583 |     23962846 |     23962846 |     23962846 |     23962846 |     49990656 |     49990656 |     49990656 |     49990656 |    104225782 |    104225782 |    104225782 |    104225782 |    216731273 |    216731273 |    216731273 |    216731273 |    450419781 |    450419781 |    450419781 |    450419781 |
sim_elapsed_time                                 1 |            1 |           72 |           36 |            1 |            2 |          111 |           56 |            3 |            2 |          253 |          106 |            5 |            5 |          414 |          260 |           16 |           17 |         1309 |         1030 |           35 |           90 |         2509 |         1036 |           98 |           98 |         4013 |         1410 |          205 |          202 |         5386 |         1546 |          429 |          426 |         5291 |         1359 |          669 |          669 |         3870 |         1189 |          937 |          940 |         3717 |         1786 |
sim_inst_rate                         1009754.0000 | 1009754.0000 |   14024.3611 |   28048.7222 | 2138770.0000 | 1069385.0000 |   19268.1982 |   38192.3214 | 1509929.6667 | 2264894.5000 |   17904.3043 |   42733.8585 | 1914913.4000 | 1914913.4000 |   23126.9734 |   36825.2577 | 1264779.8125 | 1190381.0000 |   15459.4935 |   19647.0650 | 1217135.2857 |  473330.3889 |   16978.7704 |   41119.4353 |  914104.2347 |  914104.2347 |   22323.0040 |   63533.4858 |  915642.7122 |  929241.3663 |   34850.8645 |  121414.4605 |  916078.3427 |  922529.5986 |   74276.6224 |  289181.4636 | 1225993.9268 | 1225993.9268 |  211935.3842 |  689814.9176 | 1825691.6937 | 1819865.0181 |  460229.5176 |  957823.6937 |
il1.accesses                               1009754 |      1009754 |      1009754 |      1009754 |      2138770 |      2138770 |      2138770 |      2138770 |      4529789 |      4529789 |      4529789 |      4529789 |      9574567 |      9574567 |      9574567 |      9574567 |     20236477 |     20236477 |     20236477 |     20236477 |     42599735 |     42599735 |     42599735 |     42599735 |     89582215 |     89582215 |     89582215 |     89582215 |    187706756 |    187706756 |    187706756 |    187706756 |    392997609 |    392997609 |    392997609 |    392997609 |    820189937 |    820189937 |    820189937 |    820189937 |   1710673117 |   1710673117 |   1710673117 |   1710673117 |
il1.hits                                   1008901 |      1008901 |      1008965 |      1008965 |      2137888 |      2137888 |      2137992 |      2137992 |      4528906 |      4528906 |      4529010 |      4529010 |      9573683 |      9573683 |      9573785 |      9573785 |     20235593 |     20235593 |     20235695 |     20235695 |     42598851 |     42598851 |     42598953 |     42598953 |     89581331 |     89581331 |     89581433 |     89581433 |    187705872 |    187705872 |    187705974 |    187705974 |    392996653 |    392996653 |    392996704 |    392996704 |    820188981 |    820188981 |    820189032 |    820189032 |   1710672161 |   1710672161 |   1710672212 |   1710672212 |
il1.misses                                     853 |          853 |          789 |          789 |          882 |          882 |          778 |          778 |          883 |          883 |          779 |          779 |          884 |          884 |          782 |          782 |          884 |          884 |          782 |          782 |          884 |          884 |          782 |          782 |          884 |          884 |          782 |          782 |          884 |          884 |          782 |          782 |          956 |          956 |          905 |          905 |          956 |          956 |          905 |          905 |          956 |          956 |          905 |          905 |
il1.replacements                               393 |          393 |          277 |          277 |          415 |          415 |          266 |          266 |          416 |          416 |          267 |          267 |          416 |          416 |          270 |          270 |          416 |          416 |          270 |          270 |          416 |          416 |          270 |          270 |          416 |          416 |          270 |          270 |          416 |          416 |          270 |          270 |          485 |          485 |          393 |          393 |          485 |          485 |          393 |          393 |          485 |          485 |          393 |          393 |
il1.writebacks                                   0 |            0 |            0 |            0 |            0 |            0 |            0 |            0 |            0 |            0 |            0 |            0 |            0 |            0 |            0 |            0 |            0 |            0 |            0 |            0 |            0 |            0 |            0 |            0 |            0 |            0 |            0 |            0 |            0 |            0 |            0 |            0 |            0 |            0 |            0 |            0 |            0 |            0 |            0 |            0 |            0 |            0 |            0 |            0 |
il1.invalidations                                0 |            0 |            0 |            0 |            0 |            0 |            0 |            0 |            0 |            0 |            0 |            0 |            0 |            0 |            0 |            0 |            0 |            0 |            0 |            0 |            0 |            0 |            0 |            0 |            0 |            0 |            0 |            0 |            0 |            0 |            0 |            0 |            0 |            0 |            0 |            0 |            0 |            0 |            0 |            0 |            0 |            0 |            0 |            0 |
il1.miss_rate                               0.0008 |       0.0008 |       0.0008 |       0.0008 |       0.0004 |       0.0004 |       0.0004 |       0.0004 |       0.0002 |       0.0002 |       0.0002 |       0.0002 |       0.0001 |       0.0001 |       0.0001 |       0.0001 |       0.0000 |       0.0000 |       0.0000 |       0.0000 |       0.0000 |       0.0000 |       0.0000 |       0.0000 |       0.0000 |       0.0000 |       0.0000 |       0.0000 |       0.0000 |       0.0000 |       0.0000 |       0.0000 |       0.0000 |       0.0000 |       0.0000 |       0.0000 |       0.0000 |       0.0000 |       0.0000 |       0.0000 |       0.0000 |       0.0000 |       0.0000 |       0.0000 |
il1.repl_rate                               0.0004 |       0.0004 |       0.0003 |       0.0003 |       0.0002 |       0.0002 |       0.0001 |       0.0001 |       0.0001 |       0.0001 |       0.0001 |       0.0001 |       0.0000 |       0.0000 |       0.0000 |       0.0000 |       0.0000 |       0.0000 |       0.0000 |       0.0000 |       0.0000 |       0.0000 |       0.0000 |       0.0000 |       0.0000 |       0.0000 |       0.0000 |       0.0000 |       0.0000 |       0.0000 |       0.0000 |       0.0000 |       0.0000 |       0.0000 |       0.0000 |       0.0000 |       0.0000 |       0.0000 |       0.0000 |       0.0000 |       0.0000 |       0.0000 |       0.0000 |       0.0000 |
il1.wb_rate                                 0.0000 |       0.0000 |       0.0000 |       0.0000 |       0.0000 |       0.0000 |       0.0000 |       0.0000 |       0.0000 |       0.0000 |       0.0000 |       0.0000 |       0.0000 |       0.0000 |       0.0000 |       0.0000 |       0.0000 |       0.0000 |       0.0000 |       0.0000 |       0.0000 |       0.0000 |       0.0000 |       0.0000 |       0.0000 |       0.0000 |       0.0000 |       0.0000 |       0.0000 |       0.0000 |       0.0000 |       0.0000 |       0.0000 |       0.0000 |       0.0000 |       0.0000 |       0.0000 |       0.0000 |       0.0000 |       0.0000 |       0.0000 |       0.0000 |       0.0000 |       0.0000 |
il1.inv_rate                                0.0000 |       0.0000 |       0.0000 |       0.0000 |       0.0000 |       0.0000 |       0.0000 |       0.0000 |       0.0000 |       0.0000 |       0.0000 |       0.0000 |       0.0000 |       0.0000 |       0.0000 |       0.0000 |       0.0000 |       0.0000 |       0.0000 |       0.0000 |       0.0000 |       0.0000 |       0.0000 |       0.0000 |       0.0000 |       0.0000 |       0.0000 |       0.0000 |       0.0000 |       0.0000 |       0.0000 |       0.0000 |       0.0000 |       0.0000 |       0.0000 |       0.0000 |       0.0000 |       0.0000 |       0.0000 |       0.0000 |       0.0000 |       0.0000 |       0.0000 |       0.0000 |
dl1.accesses                                284067 |       284067 |       284067 |       284067 |       593009 |       593009 |       593009 |       593009 |      1243012 |      1243012 |      1243012 |      1243012 |      2606921 |      2606921 |      2606921 |      2606921 |      5471944 |      5471944 |      5471944 |      5471944 |     11454653 |     11454653 |     11454653 |     11454653 |     23962916 |     23962916 |     23962916 |     23962916 |     49990726 |     49990726 |     49990726 |     49990726 |    104225852 |    104225852 |    104225852 |    104225852 |    216731343 |    216731343 |    216731343 |    216731343 |    450419851 |    450419851 |    450419851 |    450419851 |
dl1.hits                                    275807 |       275807 |       276498 |       276498 |       573082 |       573082 |       574561 |       574561 |      1193811 |      1193811 |      1197537 |      1197537 |      2490253 |      2490253 |      2497796 |      2497796 |      5197497 |      5197497 |      5215333 |      5215333 |     10829583 |     10829583 |     10864781 |     10864781 |     22552184 |     22552184 |     22631770 |     22631770 |     46868133 |     46868133 |     47027892 |     47027892 |     97350530 |     97350530 |     97702946 |     97702946 |    201806401 |    201806401 |    202506716 |    202506716 |    418120161 |    418120161 |    419626686 |    419626686 |
dl1.misses                                    8260 |         8260 |         7569 |         7569 |        19927 |        19927 |        18448 |        18448 |        49201 |        49201 |        45475 |        45475 |       116668 |       116668 |       109125 |       109125 |       274447 |       274447 |       256611 |       256611 |       625070 |       625070 |       589872 |       589872 |      1410732 |      1410732 |      1331146 |      1331146 |      3122593 |      3122593 |      2962834 |      2962834 |      6875322 |      6875322 |      6522906 |      6522906 |     14924942 |     14924942 |     14224627 |     14224627 |     32299690 |     32299690 |     30793165 |     30793165 |
dl1.replacements                              7748 |         7748 |         7057 |         7057 |        19415 |        19415 |        17936 |        17936 |        48689 |        48689 |        44963 |        44963 |       116156 |       116156 |       108613 |       108613 |       273935 |       273935 |       256099 |       256099 |       624558 |       624558 |       589360 |       589360 |      1410220 |      1410220 |      1330634 |      1330634 |      3122081 |      3122081 |      2962322 |      2962322 |      6874810 |      6874810 |      6522394 |      6522394 |     14924430 |     14924430 |     14224115 |     14224115 |     32299178 |     32299178 |     30792653 |     30792653 |
dl1.writebacks                                6594 |         6594 |         5930 |         5930 |        16901 |        16901 |        15502 |        15502 |        43302 |        43302 |        39824 |        39824 |       104905 |       104905 |        97912 |        97912 |       250925 |       250925 |       234309 |       234309 |       577732 |       577732 |       545298 |       545298 |      1315396 |      1315396 |      1241810 |      1241810 |      2931109 |      2931109 |      2784279 |      2784279 |      6488470 |      6488470 |      6165201 |      6165201 |     14149035 |     14149035 |     13509465 |     13509465 |     30739850 |     30739850 |     29361403 |     29361403 |
dl1.invalidations                                0 |            0 |            0 |            0 |            0 |            0 |            0 |            0 |            0 |            0 |            0 |            0 |            0 |            0 |            0 |            0 |            0 |            0 |            0 |            0 |            0 |            0 |            0 |            0 |            0 |            0 |            0 |            0 |            0 |            0 |            0 |            0 |            0 |            0 |            0 |            0 |            0 |            0 |            0 |            0 |            0 |            0 |            0 |            0 |
dl1.miss_rate                               0.0291 |       0.0291 |       0.0266 |       0.0266 |       0.0336 |       0.0336 |       0.0311 |       0.0311 |       0.0396 |       0.0396 |       0.0366 |       0.0366 |       0.0448 |       0.0448 |       0.0419 |       0.0419 |       0.0502 |       0.0502 |       0.0469 |       0.0469 |       0.0546 |       0.0546 |       0.0515 |       0.0515 |       0.0589 |       0.0589 |       0.0556 |       0.0556 |       0.0625 |       0.0625 |       0.0593 |       0.0593 |       0.0660 |       0.0660 |       0.0626 |       0.0626 |       0.0689 |       0.0689 |       0.0656 |       0.0656 |       0.0717 |       0.0717 |       0.0684 |       0.0684 |
dl1.repl_rate                               0.0273 |       0.0273 |       0.0248 |       0.0248 |       0.0327 |       0.0327 |       0.0302 |       0.0302 |       0.0392 |       0.0392 |       0.0362 |       0.0362 |       0.0446 |       0.0446 |       0.0417 |       0.0417 |       0.0501 |       0.0501 |       0.0468 |       0.0468 |       0.0545 |       0.0545 |       0.0515 |       0.0515 |       0.0589 |       0.0589 |       0.0555 |       0.0555 |       0.0625 |       0.0625 |       0.0593 |       0.0593 |       0.0660 |       0.0660 |       0.0626 |       0.0626 |       0.0689 |       0.0689 |       0.0656 |       0.0656 |       0.0717 |       0.0717 |       0.0684 |       0.0684 |
dl1.wb_rate                                 0.0232 |       0.0232 |       0.0209 |       0.0209 |       0.0285 |       0.0285 |       0.0261 |       0.0261 |       0.0348 |       0.0348 |       0.0320 |       0.0320 |       0.0402 |       0.0402 |       0.0376 |       0.0376 |       0.0459 |       0.0459 |       0.0428 |       0.0428 |       0.0504 |       0.0504 |       0.0476 |       0.0476 |       0.0549 |       0.0549 |       0.0518 |       0.0518 |       0.0586 |       0.0586 |       0.0557 |       0.0557 |       0.0623 |       0.0623 |       0.0592 |       0.0592 |       0.0653 |       0.0653 |       0.0623 |       0.0623 |       0.0682 |       0.0682 |       0.0652 |       0.0652 |
dl1.inv_rate                                0.0000 |       0.0000 |       0.0000 |       0.0000 |       0.0000 |       0.0000 |       0.0000 |       0.0000 |       0.0000 |       0.0000 |       0.0000 |       0.0000 |       0.0000 |       0.0000 |       0.0000 |       0.0000 |       0.0000 |       0.0000 |       0.0000 |       0.0000 |       0.0000 |       0.0000 |       0.0000 |       0.0000 |       0.0000 |       0.0000 |       0.0000 |       0.0000 |       0.0000 |       0.0000 |       0.0000 |       0.0000 |       0.0000 |       0.0000 |       0.0000 |       0.0000 |       0.0000 |       0.0000 |       0.0000 |       0.0000 |       0.0000 |       0.0000 |       0.0000 |       0.0000 |
dl2.accesses                                 15707 |        15707 |        14288 |        14288 |        37710 |        37710 |        34728 |        34728 |        93386 |        93386 |        86078 |        86078 |       222457 |       222457 |       207819 |       207819 |       526256 |       526256 |       491702 |       491702 |      1203686 |      1203686 |      1135952 |      1135952 |      2727012 |      2727012 |      2573738 |      2573738 |      6054586 |      6054586 |      5747895 |      5747895 |     13364748 |     13364748 |     12689012 |     12689012 |     29074933 |     29074933 |     27734997 |     27734997 |     63040496 |     63040496 |     60155473 |     60155473 |
dl2.hits                                     11944 |        11944 |        10618 |        10618 |        31869 |        31869 |        29028 |        29028 |        83448 |        83448 |        76281 |        76281 |       204326 |       204326 |       189828 |       189828 |       491739 |       491739 |       457327 |       457327 |      1136401 |      1136401 |      1068809 |      1068809 |      2594193 |      2589569 |      2441059 |      2396797 |      5786071 |      5342520 |      5401839 |      5094217 |     11936880 |     11523647 |     11381615 |     10974778 |     25391406 |     24355541 |     24308974 |     23233739 |     53600869 |     51028577 |     51154830 |     48770429 |
dl2.misses                                    3763 |         3763 |         3670 |         3670 |         5841 |         5841 |         5700 |         5700 |         9938 |         9938 |         9797 |         9797 |        18131 |        18131 |        17991 |        17991 |        34517 |        34517 |        34375 |        34375 |        67285 |        67285 |        67143 |        67143 |       132819 |       137443 |       132679 |       176941 |       268515 |       712066 |       346056 |       653678 |      1427868 |      1841101 |      1307397 |      1714234 |      3683527 |      4719392 |      3426023 |      4501258 |      9439627 |     12011919 |      9000643 |     11385044 |
dl2.replacements                               691 |          691 |            0 |            0 |          719 |          719 |            0 |            0 |          720 |          720 |            0 |            0 |          721 |          721 |            0 |            0 |          723 |          723 |            0 |            0 |          723 |          723 |            0 |            0 |          721 |         8435 |            0 |        45869 |         8435 |       580994 |        83912 |       522606 |      1165724 |      1710029 |      1045253 |      1583162 |      3421383 |      4588320 |      3163879 |      4370186 |      9177483 |     11880847 |      8738499 |     11253972 |
dl2.writebacks                                 349 |          349 |            0 |            0 |          375 |          375 |            0 |            0 |          376 |          376 |            0 |            0 |          377 |          377 |            0 |            0 |          377 |          377 |            0 |            0 |          377 |          377 |            0 |            0 |          377 |         8091 |            0 |        44460 |         8091 |       453269 |        82503 |       389214 |       908840 |      1427854 |       778667 |      1296370 |      2857261 |      3971908 |      2591075 |      3748523 |      7944068 |     10567815 |      7494448 |      9935395 |
dl2.invalidations                                0 |            0 |            0 |            0 |            0 |            0 |            0 |            0 |            0 |            0 |            0 |            0 |            0 |            0 |            0 |            0 |            0 |            0 |            0 |            0 |            0 |            0 |            0 |            0 |            0 |            0 |            0 |            0 |            0 |            0 |            0 |            0 |            0 |            0 |            0 |            0 |            0 |            0 |            0 |            0 |            0 |            0 |            0 |            0 |
dl2.miss_rate                               0.2396 |       0.2396 |       0.2569 |       0.2569 |       0.1549 |       0.1549 |       0.1641 |       0.1641 |       0.1064 |       0.1064 |       0.1138 |       0.1138 |       0.0815 |       0.0815 |       0.0866 |       0.0866 |       0.0656 |       0.0656 |       0.0699 |       0.0699 |       0.0559 |       0.0559 |       0.0591 |       0.0591 |       0.0487 |       0.0504 |       0.0516 |       0.0687 |       0.0443 |       0.1176 |       0.0602 |       0.1137 |       0.1068 |       0.1378 |       0.1030 |       0.1351 |       0.1267 |       0.1623 |       0.1235 |       0.1623 |       0.1497 |       0.1905 |       0.1496 |       0.1893 |
dl2.repl_rate                               0.0440 |       0.0440 |       0.0000 |       0.0000 |       0.0191 |       0.0191 |       0.0000 |       0.0000 |       0.0077 |       0.0077 |       0.0000 |       0.0000 |       0.0032 |       0.0032 |       0.0000 |       0.0000 |       0.0014 |       0.0014 |       0.0000 |       0.0000 |       0.0006 |       0.0006 |       0.0000 |       0.0000 |       0.0003 |       0.0031 |       0.0000 |       0.0178 |       0.0014 |       0.0960 |       0.0146 |       0.0909 |       0.0872 |       0.1280 |       0.0824 |       0.1248 |       0.1177 |       0.1578 |       0.1141 |       0.1576 |       0.1456 |       0.1885 |       0.1453 |       0.1871 |
dl2.wb_rate                                 0.0222 |       0.0222 |       0.0000 |       0.0000 |       0.0099 |       0.0099 |       0.0000 |       0.0000 |       0.0040 |       0.0040 |       0.0000 |       0.0000 |       0.0017 |       0.0017 |       0.0000 |       0.0000 |       0.0007 |       0.0007 |       0.0000 |       0.0000 |       0.0003 |       0.0003 |       0.0000 |       0.0000 |       0.0001 |       0.0030 |       0.0000 |       0.0173 |       0.0013 |       0.0749 |       0.0144 |       0.0677 |       0.0680 |       0.1068 |       0.0614 |       0.1022 |       0.0983 |       0.1366 |       0.0934 |       0.1352 |       0.1260 |       0.1676 |       0.1246 |       0.1652 |
dl2.inv_rate                                0.0000 |       0.0000 |       0.0000 |       0.0000 |       0.0000 |       0.0000 |       0.0000 |       0.0000 |       0.0000 |       0.0000 |       0.0000 |       0.0000 |       0.0000 |       0.0000 |       0.0000 |       0.0000 |       0.0000 |       0.0000 |       0.0000 |       0.0000 |       0.0000 |       0.0000 |       0.0000 |       0.0000 |       0.0000 |       0.0000 |       0.0000 |       0.0000 |       0.0000 |       0.0000 |       0.0000 |       0.0000 |       0.0000 |       0.0000 |       0.0000 |       0.0000 |       0.0000 |       0.0000 |       0.0000 |       0.0000 |       0.0000 |       0.0000 |       0.0000 |       0.0000 |
itlb.accesses                              1009754 |      1009754 |      1009754 |      1009754 |      2138770 |      2138770 |      2138770 |      2138770 |      4529789 |      4529789 |      4529789 |      4529789 |      9574567 |      9574567 |      9574567 |      9574567 |     20236477 |     20236477 |     20236477 |     20236477 |     42599735 |     42599735 |     42599735 |     42599735 |     89582215 |     89582215 |     89582215 |     89582215 |    187706756 |    187706756 |    187706756 |    187706756 |    392997609 |    392997609 |    392997609 |    392997609 |    820189937 |    820189937 |    820189937 |    820189937 |   1710673117 |   1710673117 |   1710673117 |   1710673117 |
itlb.hits                                  1009746 |      1009746 |      1009746 |      1009746 |      2138762 |      2138762 |      2138762 |      2138762 |      4529781 |      4529781 |      4529781 |      4529781 |      9574559 |      9574559 |      9574559 |      9574559 |     20236469 |     20236469 |     20236469 |     20236469 |     42599727 |     42599727 |     42599727 |     42599727 |     89582207 |     89582207 |     89582207 |     89582207 |    187706748 |    187706748 |    187706748 |    187706748 |    392997601 |    392997601 |    392997601 |    392997601 |    820189929 |    820189929 |    820189929 |    820189929 |   1710673109 |   1710673109 |   1710673109 |   1710673109 |
itlb.misses                                      8 |            8 |            8 |            8 |            8 |            8 |            8 |            8 |            8 |            8 |            8 |            8 |            8 |            8 |            8 |            8 |            8 |            8 |            8 |            8 |            8 |            8 |            8 |            8 |            8 |            8 |            8 |            8 |            8 |            8 |            8 |            8 |            8 |            8 |            8 |            8 |            8 |            8 |            8 |            8 |            8 |            8 |            8 |            8 |
itlb.replacements                                0 |            0 |            0 |            0 |            0 |            0 |            0 |            0 |            0 |            0 |            0 |            0 |            0 |            0 |            0 |            0 |            0 |            0 |            0 |            0 |            0 |            0 |            0 |            0 |            0 |            0 |            0 |            0 |            0 |            0 |            0 |            0 |            0 |            0 |            0 |            0 |            0 |            0 |            0 |            0 |            0 |            0 |            0 |            0 |
itlb.writebacks                                  0 |            0 |            0 |            0 |            0 |            0 |            0 |            0 |            0 |            0 |            0 |            0 |            0 |            0 |            0 |            0 |            0 |            0 |            0 |            0 |            0 |            0 |            0 |            0 |            0 |            0 |            0 |            0 |            0 |            0 |            0 |            0 |            0 |            0 |            0 |            0 |            0 |            0 |            0 |            0 |            0 |            0 |            0 |            0 |
itlb.invalidations                               0 |            0 |            0 |            0 |            0 |            0 |            0 |            0 |            0 |            0 |            0 |            0 |            0 |            0 |            0 |            0 |            0 |            0 |            0 |            0 |            0 |            0 |            0 |            0 |            0 |            0 |            0 |            0 |            0 |            0 |            0 |            0 |            0 |            0 |            0 |            0 |            0 |            0 |            0 |            0 |            0 |            0 |            0 |            0 |
itlb.miss_rate                              0.0000 |       0.0000 |       0.0000 |       0.0000 |       0.0000 |       0.0000 |       0.0000 |       0.0000 |       0.0000 |       0.0000 |       0.0000 |       0.0000 |       0.0000 |       0.0000 |       0.0000 |       0.0000 |       0.0000 |       0.0000 |       0.0000 |       0.0000 |       0.0000 |       0.0000 |       0.0000 |       0.0000 |       0.0000 |       0.0000 |       0.0000 |       0.0000 |       0.0000 |       0.0000 |       0.0000 |       0.0000 |       0.0000 |       0.0000 |       0.0000 |       0.0000 |       0.0000 |       0.0000 |       0.0000 |       0.0000 |       0.0000 |       0.0000 |       0.0000 |       0.0000 |
itlb.repl_rate                              0.0000 |       0.0000 |       0.0000 |       0.0000 |       0.0000 |       0.0000 |       0.0000 |       0.0000 |       0.0000 |       0.0000 |       0.0000 |       0.0000 |       0.0000 |       0.0000 |       0.0000 |       0.0000 |       0.0000 |       0.0000 |       0.0000 |       0.0000 |       0.0000 |       0.0000 |       0.0000 |       0.0000 |       0.0000 |       0.0000 |       0.0000 |       0.0000 |       0.0000 |       0.0000 |       0.0000 |       0.0000 |       0.0000 |       0.0000 |       0.0000 |       0.0000 |       0.0000 |       0.0000 |       0.0000 |       0.0000 |       0.0000 |       0.0000 |       0.0000 |       0.0000 |
itlb.wb_rate                                0.0000 |       0.0000 |       0.0000 |       0.0000 |       0.0000 |       0.0000 |       0.0000 |       0.0000 |       0.0000 |       0.0000 |       0.0000 |       0.0000 |       0.0000 |       0.0000 |       0.0000 |       0.0000 |       0.0000 |       0.0000 |       0.0000 |       0.0000 |       0.0000 |       0.0000 |       0.0000 |       0.0000 |       0.0000 |       0.0000 |       0.0000 |       0.0000 |       0.0000 |       0.0000 |       0.0000 |       0.0000 |       0.0000 |       0.0000 |       0.0000 |       0.0000 |       0.0000 |       0.0000 |       0.0000 |       0.0000 |       0.0000 |       0.0000 |       0.0000 |       0.0000 |
itlb.inv_rate                               0.0000 |       0.0000 |       0.0000 |       0.0000 |       0.0000 |       0.0000 |       0.0000 |       0.0000 |       0.0000 |       0.0000 |       0.0000 |       0.0000 |       0.0000 |       0.0000 |       0.0000 |       0.0000 |       0.0000 |       0.0000 |       0.0000 |       0.0000 |       0.0000 |       0.0000 |       0.0000 |       0.0000 |       0.0000 |       0.0000 |       0.0000 |       0.0000 |       0.0000 |       0.0000 |       0.0000 |       0.0000 |       0.0000 |       0.0000 |       0.0000 |       0.0000 |       0.0000 |       0.0000 |       0.0000 |       0.0000 |       0.0000 |       0.0000 |       0.0000 |       0.0000 |
dtlb.accesses                               284067 |       284067 |       284067 |       284067 |       593009 |       593009 |       593009 |       593009 |      1243012 |      1243012 |      1243012 |      1243012 |      2606921 |      2606921 |      2606921 |      2606921 |      5471944 |      5471944 |      5471944 |      5471944 |     11454653 |     11454653 |     11454653 |     11454653 |     23962916 |     23962916 |     23962916 |     23962916 |     49990726 |     49990726 |     49990726 |     49990726 |    104225852 |    104225852 |    104225852 |    104225852 |    216731343 |    216731343 |    216731343 |    216731343 |    450419851 |    450419851 |    450419851 |    450419851 |
dtlb.hits                                   284052 |       284052 |       284052 |       284052 |       592986 |       592986 |       592986 |       592986 |      1242973 |      1242973 |      1242973 |      1242973 |      2606850 |      2606850 |      2606850 |      2606850 |      5471799 |      5471799 |      5471799 |      5471799 |     11453862 |     11453862 |     11453862 |     11453862 |     23905545 |     23905545 |     23905545 |     23905545 |     49640146 |     49640146 |     49640146 |     49640146 |    102932062 |    102932062 |    102932062 |    102932062 |    212879724 |    212879724 |    212879724 |    212879724 |    440123451 |    440123451 |    440123451 |    440123451 |
dtlb.misses                                     15 |           15 |           15 |           15 |           23 |           23 |           23 |           23 |           39 |           39 |           39 |           39 |           71 |           71 |           71 |           71 |          145 |          145 |          145 |          145 |          791 |          791 |          791 |          791 |        57371 |        57371 |        57371 |        57371 |       350580 |       350580 |       350580 |       350580 |      1293790 |      1293790 |      1293790 |      1293790 |      3851619 |      3851619 |      3851619 |      3851619 |     10296400 |     10296400 |     10296400 |     10296400 |
dtlb.replacements                                0 |            0 |            0 |            0 |            0 |            0 |            0 |            0 |            0 |            0 |            0 |            0 |            0 |            0 |            0 |            0 |           17 |           17 |           17 |           17 |          663 |          663 |          663 |          663 |        57243 |        57243 |        57243 |        57243 |       350452 |       350452 |       350452 |       350452 |      1293662 |      1293662 |      1293662 |      1293662 |      3851491 |      3851491 |      3851491 |      3851491 |     10296272 |     10296272 |     10296272 |     10296272 |
dtlb.writebacks                                  0 |            0 |            0 |            0 |            0 |            0 |            0 |            0 |            0 |            0 |            0 |            0 |            0 |            0 |            0 |            0 |           15 |           15 |           15 |           15 |          537 |          537 |          537 |          537 |        54140 |        54140 |        54140 |        54140 |       331831 |       331831 |       331831 |       331831 |      1234542 |      1234542 |      1234542 |      1234542 |      3702692 |      3702692 |      3702692 |      3702692 |      9959539 |      9959539 |      9959539 |      9959539 |
dtlb.invalidations                               0 |            0 |            0 |            0 |            0 |            0 |            0 |            0 |            0 |            0 |            0 |            0 |            0 |            0 |            0 |            0 |            0 |            0 |            0 |            0 |            0 |            0 |            0 |            0 |            0 |            0 |            0 |            0 |            0 |            0 |            0 |            0 |            0 |            0 |            0 |            0 |            0 |            0 |            0 |            0 |            0 |            0 |            0 |            0 |
dtlb.miss_rate                              0.0001 |       0.0001 |       0.0001 |       0.0001 |       0.0000 |       0.0000 |       0.0000 |       0.0000 |       0.0000 |       0.0000 |       0.0000 |       0.0000 |       0.0000 |       0.0000 |       0.0000 |       0.0000 |       0.0000 |       0.0000 |       0.0000 |       0.0000 |       0.0001 |       0.0001 |       0.0001 |       0.0001 |       0.0024 |       0.0024 |       0.0024 |       0.0024 |       0.0070 |       0.0070 |       0.0070 |       0.0070 |       0.0124 |       0.0124 |       0.0124 |       0.0124 |       0.0178 |       0.0178 |       0.0178 |       0.0178 |       0.0229 |       0.0229 |       0.0229 |       0.0229 |
dtlb.repl_rate                              0.0000 |       0.0000 |       0.0000 |       0.0000 |       0.0000 |       0.0000 |       0.0000 |       0.0000 |       0.0000 |       0.0000 |       0.0000 |       0.0000 |       0.0000 |       0.0000 |       0.0000 |       0.0000 |       0.0000 |       0.0000 |       0.0000 |       0.0000 |       0.0001 |       0.0001 |       0.0001 |       0.0001 |       0.0024 |       0.0024 |       0.0024 |       0.0024 |       0.0070 |       0.0070 |       0.0070 |       0.0070 |       0.0124 |       0.0124 |       0.0124 |       0.0124 |       0.0178 |       0.0178 |       0.0178 |       0.0178 |       0.0229 |       0.0229 |       0.0229 |       0.0229 |
dtlb.wb_rate                                0.0000 |       0.0000 |       0.0000 |       0.0000 |       0.0000 |       0.0000 |       0.0000 |       0.0000 |       0.0000 |       0.0000 |       0.0000 |       0.0000 |       0.0000 |       0.0000 |       0.0000 |       0.0000 |       0.0000 |       0.0000 |       0.0000 |       0.0000 |       0.0000 |       0.0000 |       0.0000 |       0.0000 |       0.0023 |       0.0023 |       0.0023 |       0.0023 |       0.0066 |       0.0066 |       0.0066 |       0.0066 |       0.0118 |       0.0118 |       0.0118 |       0.0118 |       0.0171 |       0.0171 |       0.0171 |       0.0171 |       0.0221 |       0.0221 |       0.0221 |       0.0221 |
dtlb.inv_rate                               0.0000 |       0.0000 |       0.0000 |       0.0000 |       0.0000 |       0.0000 |       0.0000 |       0.0000 |       0.0000 |       0.0000 |       0.0000 |       0.0000 |       0.0000 |       0.0000 |       0.0000 |       0.0000 |       0.0000 |       0.0000 |       0.0000 |       0.0000 |       0.0000 |       0.0000 |       0.0000 |       0.0000 |       0.0000 |       0.0000 |       0.0000 |       0.0000 |       0.0000 |       0.0000 |       0.0000 |       0.0000 |       0.0000 |       0.0000 |       0.0000 |       0.0000 |       0.0000 |       0.0000 |       0.0000 |       0.0000 |       0.0000 |       0.0000 |       0.0000 |       0.0000 |
ld_text_base                            0x00400000 |   0x00400000 |   0x00400000 |   0x00400000 |   0x00400000 |   0x00400000 |   0x00400000 |   0x00400000 |   0x00400000 |   0x00400000 |   0x00400000 |   0x00400000 |   0x00400000 |   0x00400000 |   0x00400000 |   0x00400000 |   0x00400000 |   0x00400000 |   0x00400000 |   0x00400000 |   0x00400000 |   0x00400000 |   0x00400000 |   0x00400000 |   0x00400000 |   0x00400000 |   0x00400000 |   0x00400000 |   0x00400000 |   0x00400000 |   0x00400000 |   0x00400000 |   0x00400000 |   0x00400000 |   0x00400000 |   0x00400000 |   0x00400000 |   0x00400000 |   0x00400000 |   0x00400000 |   0x00400000 |   0x00400000 |   0x00400000 |   0x00400000 |
ld_text_size                                 29120 |        29120 |        29120 |        29120 |        29152 |        29152 |        29152 |        29152 |        29168 |        29168 |        29168 |        29168 |        29200 |        29200 |        29200 |        29200 |        29200 |        29200 |        29200 |        29200 |        29200 |        29200 |        29200 |        29200 |        29200 |        29200 |        29200 |        29200 |        29200 |        29200 |        29200 |        29200 |        29200 |        29200 |        29200 |        29200 |        29200 |        29200 |        29200 |        29200 |        29200 |        29200 |        29200 |        29200 |
ld_data_base                            0x10000000 |   0x10000000 |   0x10000000 |   0x10000000 |   0x10000000 |   0x10000000 |   0x10000000 |   0x10000000 |   0x10000000 |   0x10000000 |   0x10000000 |   0x10000000 |   0x10000000 |   0x10000000 |   0x10000000 |   0x10000000 |   0x10000000 |   0x10000000 |   0x10000000 |   0x10000000 |   0x10000000 |   0x10000000 |   0x10000000 |   0x10000000 |   0x10000000 |   0x10000000 |   0x10000000 |   0x10000000 |   0x10000000 |   0x10000000 |   0x10000000 |   0x10000000 |   0x10000000 |   0x10000000 |   0x10000000 |   0x10000000 |   0x10000000 |   0x10000000 |   0x10000000 |   0x10000000 |   0x10000000 |   0x10000000 |   0x10000000 |   0x10000000 |
ld_data_size                                  4096 |         4096 |         4096 |         4096 |         4096 |         4096 |         4096 |         4096 |         4096 |         4096 |         4096 |         4096 |         4096 |         4096 |         4096 |         4096 |         4096 |         4096 |         4096 |         4096 |         4096 |         4096 |         4096 |         4096 |         4096 |         4096 |         4096 |         4096 |         4096 |         4096 |         4096 |         4096 |         4096 |         4096 |         4096 |         4096 |         4096 |         4096 |         4096 |         4096 |         4096 |         4096 |         4096 |         4096 |
ld_stack_base                           0x7fffc000 |   0x7fffc000 |   0x7fffc000 |   0x7fffc000 |   0x7fffc000 |   0x7fffc000 |   0x7fffc000 |   0x7fffc000 |   0x7fffc000 |   0x7fffc000 |   0x7fffc000 |   0x7fffc000 |   0x7fffc000 |   0x7fffc000 |   0x7fffc000 |   0x7fffc000 |   0x7fffc000 |   0x7fffc000 |   0x7fffc000 |   0x7fffc000 |   0x7fffc000 |   0x7fffc000 |   0x7fffc000 |   0x7fffc000 |   0x7fffc000 |   0x7fffc000 |   0x7fffc000 |   0x7fffc000 |   0x7fffc000 |   0x7fffc000 |   0x7fffc000 |   0x7fffc000 |   0x7fffc000 |   0x7fffc000 |   0x7fffc000 |   0x7fffc000 |   0x7fffc000 |   0x7fffc000 |   0x7fffc000 |   0x7fffc000 |   0x7fffc000 |   0x7fffc000 |   0x7fffc000 |   0x7fffc000 |
ld_stack_size                                16384 |        16384 |        16384 |        16384 |        16384 |        16384 |        16384 |        16384 |        16384 |        16384 |        16384 |        16384 |        16384 |        16384 |        16384 |        16384 |        16384 |        16384 |        16384 |        16384 |        16384 |        16384 |        16384 |        16384 |        16384 |        16384 |        16384 |        16384 |        16384 |        16384 |        16384 |        16384 |        16384 |        16384 |        16384 |        16384 |        16384 |        16384 |        16384 |        16384 |        16384 |        16384 |        16384 |        16384 |
ld_prog_entry                           0x00400140 |   0x00400140 |   0x00400140 |   0x00400140 |   0x00400140 |   0x00400140 |   0x00400140 |   0x00400140 |   0x00400140 |   0x00400140 |   0x00400140 |   0x00400140 |   0x00400140 |   0x00400140 |   0x00400140 |   0x00400140 |   0x00400140 |   0x00400140 |   0x00400140 |   0x00400140 |   0x00400140 |   0x00400140 |   0x00400140 |   0x00400140 |   0x00400140 |   0x00400140 |   0x00400140 |   0x00400140 |   0x00400140 |   0x00400140 |   0x00400140 |   0x00400140 |   0x00400140 |   0x00400140 |   0x00400140 |   0x00400140 |   0x00400140 |   0x00400140 |   0x00400140 |   0x00400140 |   0x00400140 |   0x00400140 |   0x00400140 |   0x00400140 |
ld_environ_base                         0x7fff8000 |   0x7fff8000 |   0x7fff8000 |   0x7fff8000 |   0x7fff8000 |   0x7fff8000 |   0x7fff8000 |   0x7fff8000 |   0x7fff8000 |   0x7fff8000 |   0x7fff8000 |   0x7fff8000 |   0x7fff8000 |   0x7fff8000 |   0x7fff8000 |   0x7fff8000 |   0x7fff8000 |   0x7fff8000 |   0x7fff8000 |   0x7fff8000 |   0x7fff8000 |   0x7fff8000 |   0x7fff8000 |   0x7fff8000 |   0x7fff8000 |   0x7fff8000 |   0x7fff8000 |   0x7fff8000 |   0x7fff8000 |   0x7fff8000 |   0x7fff8000 |   0x7fff8000 |   0x7fff8000 |   0x7fff8000 |   0x7fff8000 |   0x7fff8000 |   0x7fff8000 |   0x7fff8000 |   0x7fff8000 |   0x7fff8000 |   0x7fff8000 |   0x7fff8000 |   0x7fff8000 |   0x7fff8000 |
ld_target_big_endian                             0 |            0 |            0 |            0 |            0 |            0 |            0 |            0 |            0 |            0 |            0 |            0 |            0 |            0 |            0 |            0 |            0 |            0 |            0 |            0 |            0 |            0 |            0 |            0 |            0 |            0 |            0 |            0 |            0 |            0 |            0 |            0 |            0 |            0 |            0 |            0 |            0 |            0 |            0 |            0 |            0 |            0 |            0 |            0 |
mem.page_count                                  23 |           23 |           23 |           23 |           31 |           31 |           31 |           31 |           47 |           47 |           47 |           47 |           79 |           79 |           79 |           79 |          143 |          143 |          143 |          143 |          271 |          271 |          271 |          271 |          527 |          527 |          527 |          527 |         1039 |         1039 |         1039 |         1039 |         2069 |         2069 |         2069 |         2069 |         4123 |         4123 |         4123 |         4123 |         8231 |         8231 |         8231 |         8231 |
mem.page_mem                                   92k |          92k |          92k |          92k |         124k |         124k |         124k |         124k |         188k |         188k |         188k |         188k |         316k |         316k |         316k |         316k |         572k |         572k |         572k |         572k |        1084k |        1084k |        1084k |        1084k |        2108k |        2108k |        2108k |        2108k |        4156k |        4156k |        4156k |        4156k |        8276k |        8276k |        8276k |        8276k |       16492k |       16492k |       16492k |       16492k |       32924k |       32924k |       32924k |       32924k |
mem.ptab_misses                                 23 |           23 |           23 |           23 |           31 |           31 |           31 |           31 |           47 |           47 |           47 |           47 |           79 |           79 |           79 |           79 |          143 |          143 |          143 |          143 |          271 |          271 |          271 |          271 |          527 |          527 |          527 |          527 |         1039 |         1039 |         1039 |         1039 |        11247 |        11247 |        11247 |        11247 |        23141 |        23141 |        23141 |        23141 |        64877 |        64877 |        64877 |        64877 |
mem.ptab_accesses                          4787086 |      4787086 |      4787086 |      4787086 |      9921226 |      9921226 |      9921226 |      9921226 |     20785404 |     20785404 |     20785404 |     20785404 |     43692526 |     43692526 |     43692526 |     43692526 |     92070212 |     92070212 |     92070212 |     92070212 |    193488662 |    193488662 |    193488662 |    193488662 |    406435108 |    406435108 |    406435108 |    406435108 |    850988892 |    850988892 |    850988892 |    850988892 |   1780622556 |   1780622556 |   1780622556 |   1780622556 |   3714402850 |   3714402850 |   3714402850 |   3714402850 |   7743712586 |   7743712586 |   7743712586 |   7743712586 |
mem.ptab_miss_rate                          0.0000 |       0.0000 |       0.0000 |       0.0000 |       0.0000 |       0.0000 |       0.0000 |       0.0000 |       0.0000 |       0.0000 |       0.0000 |       0.0000 |       0.0000 |       0.0000 |       0.0000 |       0.0000 |       0.0000 |       0.0000 |       0.0000 |       0.0000 |       0.0000 |       0.0000 |       0.0000 |       0.0000 |       0.0000 |       0.0000 |       0.0000 |       0.0000 |       0.0000 |       0.0000 |       0.0000 |       0.0000 |       0.0000 |       0.0000 |       0.0000 |       0.0000 |       0.0000 |       0.0000 |       0.0000 |       0.0000 |       0.0000 |       0.0000 |       0.0000 |       0.0000 |
-------------------------------------------------------------------------------------------------
sim-bpred                                     4096 |         4096 |         4096 |         4096 |         4096 |         4096 |         4096 |         8192 |         8192 |         8192 |         8192 |         8192 |         8192 |         8192 |        16384 |        16384 |        16384 |        16384 |        16384 |        16384 |        16384 |        32768 |        32768 |        32768 |        32768 |        32768 |        32768 |        32768 |        65536 |        65536 |        65536 |        65536 |        65536 |        65536 |        65536 |       131072 |       131072 |       131072 |       131072 |       131072 |       131072 |       131072 |       262144 |       262144 |       262144 |       262144 |       262144 |       262144 |       262144 |       524288 |       524288 |       524288 |       524288 |       524288 |       524288 |       524288 |      1048576 |      1048576 |      1048576 |      1048576 |      1048576 |      1048576 |      1048576 |      2097152 |      2097152 |      2097152 |      2097152 |      2097152 |      2097152 |      2097152 |      4194304 |      4194304 |      4194304 |      4194304 |      4194304 |      4194304 |      4194304 |
-bpred bimod -bpred:bimod 512
-bpred bimod -bpred:bimod 1024
-bpred bimod -bpred:bimod 2048
-bpred 2lev -bpred:2lev 1 512 10 1
-bpred 2lev -bpred:2lev 1 1024 10 1
-bpred 2lev -bpred:2lev 1 2048 10 1
-bpred 2lev -bpred:2lev 1 4096 10 1
-------------------------------------------------------------------------------------------------
sim_num_insn                               1009754 |      1009754 |      1009754 |      1009754 |      1009754 |      1009754 |      1009754 |      2138770 |      2138770 |      2138770 |      2138770 |      2138770 |      2138770 |      2138770 |      4529789 |      4529789 |      4529789 |      4529789 |      4529789 |      4529789 |      4529789 |      9574567 |      9574567 |      9574567 |      9574567 |      9574567 |      9574567 |      9574567 |     20236477 |     20236477 |     20236477 |     20236477 |     20236477 |     20236477 |     20236477 |     42599735 |     42599735 |     42599735 |     42599735 |     42599735 |     42599735 |     42599735 |     89582215 |     89582215 |     89582215 |     89582215 |     89582215 |     89582215 |     89582215 |    187706756 |    187706756 |    187706756 |    187706756 |    187706756 |    187706756 |    187706756 |    392997609 |    392997609 |    392997609 |    392997609 |    392997609 |    392997609 |    392997609 |    820189937 |    820189937 |    820189937 |    820189937 |    820189937 |    820189937 |    820189937 |   1710673117 |   1710673117 |   1710673117 |   1710673117 |   1710673117 |   1710673117 |   1710673117 |
sim_num_refs                                283997 |       283997 |       283997 |       283997 |       283997 |       283997 |       283997 |       592939 |       592939 |       592939 |       592939 |       592939 |       592939 |       592939 |      1242942 |      1242942 |      1242942 |      1242942 |      1242942 |      1242942 |      1242942 |      2606851 |      2606851 |      2606851 |      2606851 |      2606851 |      2606851 |      2606851 |      5471874 |      5471874 |      5471874 |      5471874 |      5471874 |      5471874 |      5471874 |     11454583 |     11454583 |     11454583 |     11454583 |     11454583 |     11454583 |     11454583 |     23962846 |     23962846 |     23962846 |     23962846 |     23962846 |     23962846 |     23962846 |     49990656 |     49990656 |     49990656 |     49990656 |     49990656 |     49990656 |     49990656 |    104225782 |    104225782 |    104225782 |    104225782 |    104225782 |    104225782 |    104225782 |    216731273 |    216731273 |    216731273 |    216731273 |    216731273 |    216731273 |    216731273 |    450419781 |    450419781 |    450419781 |    450419781 |    450419781 |    450419781 |    450419781 |
sim_elapsed_time                                 1 |            1 |            1 |            1 |            1 |            1 |            1 |            1 |            1 |            1 |            1 |            1 |            1 |            1 |            1 |            1 |            1 |            1 |            1 |            1 |            1 |            3 |            4 |            3 |            3 |            4 |            3 |            4 |            7 |            7 |            7 |            7 |            7 |            7 |            7 |           20 |           20 |           20 |           21 |           21 |           20 |           21 |           42 |           43 |           42 |           43 |           43 |           43 |           42 |           88 |           89 |           89 |           90 |           90 |           91 |           90 |          140 |          142 |          140 |          141 |          142 |          142 |          141 |          193 |          192 |          193 |          196 |          196 |          196 |          196 |          401 |          403 |          406 |          414 |          414 |          414 |          413 |
sim_inst_rate                         1009754.0000 | 1009754.0000 | 1009754.0000 | 1009754.0000 | 1009754.0000 | 1009754.0000 | 1009754.0000 | 2138770.0000 | 2138770.0000 | 2138770.0000 | 2138770.0000 | 2138770.0000 | 2138770.0000 | 2138770.0000 | 4529789.0000 | 4529789.0000 | 4529789.0000 | 4529789.0000 | 4529789.0000 | 4529789.0000 | 4529789.0000 | 3191522.3333 | 2393641.7500 | 3191522.3333 | 3191522.3333 | 2393641.7500 | 3191522.3333 | 2393641.7500 | 2890925.2857 | 2890925.2857 | 2890925.2857 | 2890925.2857 | 2890925.2857 | 2890925.2857 | 2890925.2857 | 2129986.7500 | 2129986.7500 | 2129986.7500 | 2028558.8095 | 2028558.8095 | 2129986.7500 | 2028558.8095 | 2132909.8810 | 2083307.3256 | 2132909.8810 | 2083307.3256 | 2083307.3256 | 2083307.3256 | 2132909.8810 | 2133031.3182 | 2109064.6742 | 2109064.6742 | 2085630.6222 | 2085630.6222 | 2062711.6044 | 2085630.6222 | 2807125.7786 | 2767588.7958 | 2807125.7786 | 2787217.0851 | 2767588.7958 | 2767588.7958 | 2787217.0851 | 4249688.7927 | 4271822.5885 | 4249688.7927 | 4184642.5357 | 4184642.5357 | 4184642.5357 | 4184642.5357 | 4266017.7481 | 4244846.4442 | 4213480.5837 | 4132060.6691 | 4132060.6691 | 4132060.6691 | 4142065.6586 |
sim_num_branches                            169557 |       169557 |       169557 |       169557 |       169557 |       169557 |       169557 |       357028 |       357028 |       357028 |       357028 |       357028 |       357028 |       357028 |       751920 |       751920 |       751920 |       751920 |       751920 |       751920 |       751920 |      1581403 |      1581403 |      1581403 |      1581403 |      1581403 |      1581403 |      1581403 |      3327047 |      3327047 |      3327047 |      3327047 |      3327047 |      3327047 |      3327047 |      6975550 |      6975550 |      6975550 |      6975550 |      6975550 |      6975550 |      6975550 |     14612970 |     14612970 |     14612970 |     14612970 |     14612970 |     14612970 |     14612970 |     30519216 |     30519216 |     30519216 |     30519216 |     30519216 |     30519216 |     30519216 |     63689876 |     63689876 |     63689876 |     63689876 |     63689876 |     63689876 |     63689876 |    132560562 |    132560562 |    132560562 |    132560562 |    132560562 |    132560562 |    132560562 |    275721250 |    275721250 |    275721250 |    275721250 |    275721250 |    275721250 |    275721250 |
sim_IPB                                     5.9552 |       5.9552 |       5.9552 |       5.9552 |       5.9552 |       5.9552 |       5.9552 |       5.9905 |       5.9905 |       5.9905 |       5.9905 |       5.9905 |       5.9905 |       5.9905 |       6.0243 |       6.0243 |       6.0243 |       6.0243 |       6.0243 |       6.0243 |       6.0243 |       6.0545 |       6.0545 |       6.0545 |       6.0545 |       6.0545 |       6.0545 |       6.0545 |       6.0824 |       6.0824 |       6.0824 |       6.0824 |       6.0824 |       6.0824 |       6.0824 |       6.1070 |       6.1070 |       6.1070 |       6.1070 |       6.1070 |       6.1070 |       6.1070 |       6.1303 |       6.1303 |       6.1303 |       6.1303 |       6.1303 |       6.1303 |       6.1303 |       6.1504 |       6.1504 |       6.1504 |       6.1504 |       6.1504 |       6.1504 |       6.1504 |       6.1705 |       6.1705 |       6.1705 |       6.1705 |       6.1705 |       6.1705 |       6.1705 |       6.1873 |       6.1873 |       6.1873 |       6.1873 |       6.1873 |       6.1873 |       6.1873 |       6.2044 |       6.2044 |       6.2044 |       6.2044 |       6.2044 |       6.2044 |       6.2044 |
bpred_bimod.lookups                         169557 |       169557 |       169557 |xxxxxxxxxxxxx |xxxxxxxxxxxxx |xxxxxxxxxxxxx |xxxxxxxxxxxxx |       357028 |       357028 |       357028 |xxxxxxxxxxxxx |xxxxxxxxxxxxx |xxxxxxxxxxxxx |xxxxxxxxxxxxx |       751920 |       751920 |       751920 |xxxxxxxxxxxxx |xxxxxxxxxxxxx |xxxxxxxxxxxxx |xxxxxxxxxxxxx |      1581403 |      1581403 |      1581403 |xxxxxxxxxxxxx |xxxxxxxxxxxxx |xxxxxxxxxxxxx |xxxxxxxxxxxxx |      3327047 |      3327047 |      3327047 |xxxxxxxxxxxxx |xxxxxxxxxxxxx |xxxxxxxxxxxxx |xxxxxxxxxxxxx |      6975550 |      6975550 |      6975550 |xxxxxxxxxxxxx |xxxxxxxxxxxxx |xxxxxxxxxxxxx |xxxxxxxxxxxxx |     14612970 |     14612970 |     14612970 |xxxxxxxxxxxxx |xxxxxxxxxxxxx |xxxxxxxxxxxxx |xxxxxxxxxxxxx |     30519216 |     30519216 |     30519216 |xxxxxxxxxxxxx |xxxxxxxxxxxxx |xxxxxxxxxxxxx |xxxxxxxxxxxxx |     63689876 |     63689876 |     63689876 |xxxxxxxxxxxxx |xxxxxxxxxxxxx |xxxxxxxxxxxxx |xxxxxxxxxxxxx |    132560562 |    132560562 |    132560562 |xxxxxxxxxxxxx |xxxxxxxxxxxxx |xxxxxxxxxxxxx |xxxxxxxxxxxxx |    275721250 |    275721250 |    275721250 |
bpred_bimod.updates                         169557 |       169557 |       169557 |xxxxxxxxxxxxx |xxxxxxxxxxxxx |xxxxxxxxxxxxx |xxxxxxxxxxxxx |       357028 |       357028 |       357028 |xxxxxxxxxxxxx |xxxxxxxxxxxxx |xxxxxxxxxxxxx |xxxxxxxxxxxxx |       751920 |       751920 |       751920 |xxxxxxxxxxxxx |xxxxxxxxxxxxx |xxxxxxxxxxxxx |xxxxxxxxxxxxx |      1581403 |      1581403 |      1581403 |xxxxxxxxxxxxx |xxxxxxxxxxxxx |xxxxxxxxxxxxx |xxxxxxxxxxxxx |      3327047 |      3327047 |      3327047 |xxxxxxxxxxxxx |xxxxxxxxxxxxx |xxxxxxxxxxxxx |xxxxxxxxxxxxx |      6975550 |      6975550 |      6975550 |xxxxxxxxxxxxx |xxxxxxxxxxxxx |xxxxxxxxxxxxx |xxxxxxxxxxxxx |     14612970 |     14612970 |     14612970 |xxxxxxxxxxxxx |xxxxxxxxxxxxx |xxxxxxxxxxxxx |xxxxxxxxxxxxx |     30519216 |     30519216 |     30519216 |xxxxxxxxxxxxx |xxxxxxxxxxxxx |xxxxxxxxxxxxx |xxxxxxxxxxxxx |     63689876 |     63689876 |     63689876 |xxxxxxxxxxxxx |xxxxxxxxxxxxx |xxxxxxxxxxxxx |xxxxxxxxxxxxx |    132560562 |    132560562 |    132560562 |xxxxxxxxxxxxx |xxxxxxxxxxxxx |xxxxxxxxxxxxx |xxxxxxxxxxxxx |    275721250 |    275721250 |    275721250 |
bpred_bimod.addr_hits                       138506 |       138512 |       138513 |xxxxxxxxxxxxx |xxxxxxxxxxxxx |xxxxxxxxxxxxx |xxxxxxxxxxxxx |       289945 |       289952 |       289954 |xxxxxxxxxxxxx |xxxxxxxxxxxxx |xxxxxxxxxxxxx |xxxxxxxxxxxxx |       609657 |       609664 |       609665 |xxxxxxxxxxxxx |xxxxxxxxxxxxx |xxxxxxxxxxxxx |xxxxxxxxxxxxx |      1275082 |      1275087 |      1275089 |xxxxxxxxxxxxx |xxxxxxxxxxxxx |xxxxxxxxxxxxx |xxxxxxxxxxxxx |      2675277 |      2675282 |      2675284 |xxxxxxxxxxxxx |xxxxxxxxxxxxx |xxxxxxxxxxxxx |xxxxxxxxxxxxx |      5588615 |      5588620 |      5588622 |xxxxxxxxxxxxx |xxxxxxxxxxxxx |xxxxxxxxxxxxx |xxxxxxxxxxxxx |     11691527 |     11691532 |     11691534 |xxxxxxxxxxxxx |xxxxxxxxxxxxx |xxxxxxxxxxxxx |xxxxxxxxxxxxx |     24343683 |     24343688 |     24343690 |xxxxxxxxxxxxx |xxxxxxxxxxxxx |xxxxxxxxxxxxx |xxxxxxxxxxxxx |     50732842 |     50732847 |     50732850 |xxxxxxxxxxxxx |xxxxxxxxxxxxx |xxxxxxxxxxxxx |xxxxxxxxxxxxx |    105316402 |    105316407 |    105316410 |xxxxxxxxxxxxx |xxxxxxxxxxxxx |xxxxxxxxxxxxx |xxxxxxxxxxxxx |    218833406 |    218833411 |    218833415 |
bpred_bimod.dir_hits                        138634 |       138638 |       138639 |xxxxxxxxxxxxx |xxxxxxxxxxxxx |xxxxxxxxxxxxx |xxxxxxxxxxxxx |       290078 |       290083 |       290085 |xxxxxxxxxxxxx |xxxxxxxxxxxxx |xxxxxxxxxxxxx |xxxxxxxxxxxxx |       609792 |       609796 |       609796 |xxxxxxxxxxxxx |xxxxxxxxxxxxx |xxxxxxxxxxxxx |xxxxxxxxxxxxx |      1275216 |      1275219 |      1275220 |xxxxxxxxxxxxx |xxxxxxxxxxxxx |xxxxxxxxxxxxx |xxxxxxxxxxxxx |      2675411 |      2675414 |      2675415 |xxxxxxxxxxxxx |xxxxxxxxxxxxx |xxxxxxxxxxxxx |xxxxxxxxxxxxx |      5588749 |      5588752 |      5588753 |xxxxxxxxxxxxx |xxxxxxxxxxxxx |xxxxxxxxxxxxx |xxxxxxxxxxxxx |     11691660 |     11691663 |     11691664 |xxxxxxxxxxxxx |xxxxxxxxxxxxx |xxxxxxxxxxxxx |xxxxxxxxxxxxx |     24343817 |     24343820 |     24343821 |xxxxxxxxxxxxx |xxxxxxxxxxxxx |xxxxxxxxxxxxx |xxxxxxxxxxxxx |     50732987 |     50732990 |     50732991 |xxxxxxxxxxxxx |xxxxxxxxxxxxx |xxxxxxxxxxxxx |xxxxxxxxxxxxx |    105316548 |    105316550 |    105316551 |xxxxxxxxxxxxx |xxxxxxxxxxxxx |xxxxxxxxxxxxx |xxxxxxxxxxxxx |    218833550 |    218833553 |    218833556 |
bpred_bimod.misses                           30923 |        30919 |        30918 |xxxxxxxxxxxxx |xxxxxxxxxxxxx |xxxxxxxxxxxxx |xxxxxxxxxxxxx |        66950 |        66945 |        66943 |xxxxxxxxxxxxx |xxxxxxxxxxxxx |xxxxxxxxxxxxx |xxxxxxxxxxxxx |       142128 |       142124 |       142124 |xxxxxxxxxxxxx |xxxxxxxxxxxxx |xxxxxxxxxxxxx |xxxxxxxxxxxxx |       306187 |       306184 |       306183 |xxxxxxxxxxxxx |xxxxxxxxxxxxx |xxxxxxxxxxxxx |xxxxxxxxxxxxx |       651636 |       651633 |       651632 |xxxxxxxxxxxxx |xxxxxxxxxxxxx |xxxxxxxxxxxxx |xxxxxxxxxxxxx |      1386801 |      1386798 |      1386797 |xxxxxxxxxxxxx |xxxxxxxxxxxxx |xxxxxxxxxxxxx |xxxxxxxxxxxxx |      2921310 |      2921307 |      2921306 |xxxxxxxxxxxxx |xxxxxxxxxxxxx |xxxxxxxxxxxxx |xxxxxxxxxxxxx |      6175399 |      6175396 |      6175395 |xxxxxxxxxxxxx |xxxxxxxxxxxxx |xxxxxxxxxxxxx |xxxxxxxxxxxxx |     12956889 |     12956886 |     12956885 |xxxxxxxxxxxxx |xxxxxxxxxxxxx |xxxxxxxxxxxxx |xxxxxxxxxxxxx |     27244014 |     27244012 |     27244011 |xxxxxxxxxxxxx |xxxxxxxxxxxxx |xxxxxxxxxxxxx |xxxxxxxxxxxxx |     56887700 |     56887697 |     56887694 |
bpred_bimod.jr_hits                          12653 |        12653 |        12653 |xxxxxxxxxxxxx |xxxxxxxxxxxxx |xxxxxxxxxxxxx |xxxxxxxxxxxxx |        24949 |        24949 |        24949 |xxxxxxxxxxxxx |xxxxxxxxxxxxx |xxxxxxxxxxxxx |xxxxxxxxxxxxx |        49525 |        49525 |        49525 |xxxxxxxxxxxxx |xxxxxxxxxxxxx |xxxxxxxxxxxxx |xxxxxxxxxxxxx |        98677 |        98677 |        98677 |xxxxxxxxxxxxx |xxxxxxxxxxxxx |xxxxxxxxxxxxx |xxxxxxxxxxxxx |       196981 |       196981 |       196981 |xxxxxxxxxxxxx |xxxxxxxxxxxxx |xxxxxxxxxxxxx |xxxxxxxxxxxxx |       393589 |       393589 |       393589 |xxxxxxxxxxxxx |xxxxxxxxxxxxx |xxxxxxxxxxxxx |xxxxxxxxxxxxx |       786805 |       786805 |       786805 |xxxxxxxxxxxxx |xxxxxxxxxxxxx |xxxxxxxxxxxxx |xxxxxxxxxxxxx |      1573237 |      1573237 |      1573237 |xxxxxxxxxxxxx |xxxxxxxxxxxxx |xxxxxxxxxxxxx |xxxxxxxxxxxxx |      3146104 |      3146104 |      3146104 |xxxxxxxxxxxxx |xxxxxxxxxxxxx |xxxxxxxxxxxxx |xxxxxxxxxxxxx |      6291832 |      6291832 |      6291832 |xxxxxxxxxxxxx |xxxxxxxxxxxxx |xxxxxxxxxxxxx |xxxxxxxxxxxxx |     12583288 |     12583288 |     12583288 |
bpred_bimod.jr_seen                          12653 |        12653 |        12653 |xxxxxxxxxxxxx |xxxxxxxxxxxxx |xxxxxxxxxxxxx |xxxxxxxxxxxxx |        24950 |        24950 |        24950 |xxxxxxxxxxxxx |xxxxxxxxxxxxx |xxxxxxxxxxxxx |xxxxxxxxxxxxx |        49526 |        49526 |        49526 |xxxxxxxxxxxxx |xxxxxxxxxxxxx |xxxxxxxxxxxxx |xxxxxxxxxxxxx |        98678 |        98678 |        98678 |xxxxxxxxxxxxx |xxxxxxxxxxxxx |xxxxxxxxxxxxx |xxxxxxxxxxxxx |       196982 |       196982 |       196982 |xxxxxxxxxxxxx |xxxxxxxxxxxxx |xxxxxxxxxxxxx |xxxxxxxxxxxxx |       393590 |       393590 |       393590 |xxxxxxxxxxxxx |xxxxxxxxxxxxx |xxxxxxxxxxxxx |xxxxxxxxxxxxx |       786806 |       786806 |       786806 |xxxxxxxxxxxxx |xxxxxxxxxxxxx |xxxxxxxxxxxxx |xxxxxxxxxxxxx |      1573238 |      1573238 |      1573238 |xxxxxxxxxxxxx |xxxxxxxxxxxxx |xxxxxxxxxxxxx |xxxxxxxxxxxxx |      3146105 |      3146105 |      3146105 |xxxxxxxxxxxxx |xxxxxxxxxxxxx |xxxxxxxxxxxxx |xxxxxxxxxxxxx |      6291833 |      6291833 |      6291833 |xxxxxxxxxxxxx |xxxxxxxxxxxxx |xxxxxxxxxxxxx |xxxxxxxxxxxxx |     12583289 |     12583289 |     12583289 |
bpred_bimod.jr_non_ras_hits.PP                   0 |            0 |            0 |xxxxxxxxxxxxx |xxxxxxxxxxxxx |xxxxxxxxxxxxx |xxxxxxxxxxxxx |            0 |            0 |            0 |xxxxxxxxxxxxx |xxxxxxxxxxxxx |xxxxxxxxxxxxx |xxxxxxxxxxxxx |            0 |            0 |            0 |xxxxxxxxxxxxx |xxxxxxxxxxxxx |xxxxxxxxxxxxx |xxxxxxxxxxxxx |            0 |            0 |            0 |xxxxxxxxxxxxx |xxxxxxxxxxxxx |xxxxxxxxxxxxx |xxxxxxxxxxxxx |            0 |            0 |            0 |xxxxxxxxxxxxx |xxxxxxxxxxxxx |xxxxxxxxxxxxx |xxxxxxxxxxxxx |            0 |            0 |            0 |xxxxxxxxxxxxx |xxxxxxxxxxxxx |xxxxxxxxxxxxx |xxxxxxxxxxxxx |            0 |            0 |            0 |xxxxxxxxxxxxx |xxxxxxxxxxxxx |xxxxxxxxxxxxx |xxxxxxxxxxxxx |            0 |            0 |            0 |xxxxxxxxxxxxx |xxxxxxxxxxxxx |xxxxxxxxxxxxx |xxxxxxxxxxxxx |            0 |            0 |            0 |xxxxxxxxxxxxx |xxxxxxxxxxxxx |xxxxxxxxxxxxx |xxxxxxxxxxxxx |            0 |            0 |            0 |xxxxxxxxxxxxx |xxxxxxxxxxxxx |xxxxxxxxxxxxx |xxxxxxxxxxxxx |            0 |            0 |            0 |
bpred_bimod.jr_non_ras_seen.PP                   0 |            0 |            0 |xxxxxxxxxxxxx |xxxxxxxxxxxxx |xxxxxxxxxxxxx |xxxxxxxxxxxxx |            0 |            0 |            0 |xxxxxxxxxxxxx |xxxxxxxxxxxxx |xxxxxxxxxxxxx |xxxxxxxxxxxxx |            0 |            0 |            0 |xxxxxxxxxxxxx |xxxxxxxxxxxxx |xxxxxxxxxxxxx |xxxxxxxxxxxxx |            0 |            0 |            0 |xxxxxxxxxxxxx |xxxxxxxxxxxxx |xxxxxxxxxxxxx |xxxxxxxxxxxxx |            0 |            0 |            0 |xxxxxxxxxxxxx |xxxxxxxxxxxxx |xxxxxxxxxxxxx |xxxxxxxxxxxxx |            0 |            0 |            0 |xxxxxxxxxxxxx |xxxxxxxxxxxxx |xxxxxxxxxxxxx |xxxxxxxxxxxxx |            0 |            0 |            0 |xxxxxxxxxxxxx |xxxxxxxxxxxxx |xxxxxxxxxxxxx |xxxxxxxxxxxxx |            0 |            0 |            0 |xxxxxxxxxxxxx |xxxxxxxxxxxxx |xxxxxxxxxxxxx |xxxxxxxxxxxxx |            1 |            1 |            1 |xxxxxxxxxxxxx |xxxxxxxxxxxxx |xxxxxxxxxxxxx |xxxxxxxxxxxxx |            1 |            1 |            1 |xxxxxxxxxxxxx |xxxxxxxxxxxxx |xxxxxxxxxxxxx |xxxxxxxxxxxxx |            1 |            1 |            1 |
bpred_bimod.bpred_addr_rate                 0.8169 |       0.8169 |       0.8169 |xxxxxxxxxxxxx |xxxxxxxxxxxxx |xxxxxxxxxxxxx |xxxxxxxxxxxxx |       0.8121 |       0.8121 |       0.8121 |xxxxxxxxxxxxx |xxxxxxxxxxxxx |xxxxxxxxxxxxx |xxxxxxxxxxxxx |       0.8108 |       0.8108 |       0.8108 |xxxxxxxxxxxxx |xxxxxxxxxxxxx |xxxxxxxxxxxxx |xxxxxxxxxxxxx |       0.8063 |       0.8063 |       0.8063 |xxxxxxxxxxxxx |xxxxxxxxxxxxx |xxxxxxxxxxxxx |xxxxxxxxxxxxx |       0.8041 |       0.8041 |       0.8041 |xxxxxxxxxxxxx |xxxxxxxxxxxxx |xxxxxxxxxxxxx |xxxxxxxxxxxxx |       0.8012 |       0.8012 |       0.8012 |xxxxxxxxxxxxx |xxxxxxxxxxxxx |xxxxxxxxxxxxx |xxxxxxxxxxxxx |       0.8001 |       0.8001 |       0.8001 |xxxxxxxxxxxxx |xxxxxxxxxxxxx |xxxxxxxxxxxxx |xxxxxxxxxxxxx |       0.7977 |       0.7977 |       0.7977 |xxxxxxxxxxxxx |xxxxxxxxxxxxx |xxxxxxxxxxxxx |xxxxxxxxxxxxx |       0.7966 |       0.7966 |       0.7966 |xxxxxxxxxxxxx |xxxxxxxxxxxxx |xxxxxxxxxxxxx |xxxxxxxxxxxxx |       0.7945 |       0.7945 |       0.7945 |xxxxxxxxxxxxx |xxxxxxxxxxxxx |xxxxxxxxxxxxx |xxxxxxxxxxxxx |       0.7937 |       0.7937 |       0.7937 |
bpred_bimod.bpred_dir_rate                  0.8176 |       0.8176 |       0.8177 |xxxxxxxxxxxxx |xxxxxxxxxxxxx |xxxxxxxxxxxxx |xxxxxxxxxxxxx |       0.8125 |       0.8125 |       0.8125 |xxxxxxxxxxxxx |xxxxxxxxxxxxx |xxxxxxxxxxxxx |xxxxxxxxxxxxx |       0.8110 |       0.8110 |       0.8110 |xxxxxxxxxxxxx |xxxxxxxxxxxxx |xxxxxxxxxxxxx |xxxxxxxxxxxxx |       0.8064 |       0.8064 |       0.8064 |xxxxxxxxxxxxx |xxxxxxxxxxxxx |xxxxxxxxxxxxx |xxxxxxxxxxxxx |       0.8041 |       0.8041 |       0.8041 |xxxxxxxxxxxxx |xxxxxxxxxxxxx |xxxxxxxxxxxxx |xxxxxxxxxxxxx |       0.8012 |       0.8012 |       0.8012 |xxxxxxxxxxxxx |xxxxxxxxxxxxx |xxxxxxxxxxxxx |xxxxxxxxxxxxx |       0.8001 |       0.8001 |       0.8001 |xxxxxxxxxxxxx |xxxxxxxxxxxxx |xxxxxxxxxxxxx |xxxxxxxxxxxxx |       0.7977 |       0.7977 |       0.7977 |xxxxxxxxxxxxx |xxxxxxxxxxxxx |xxxxxxxxxxxxx |xxxxxxxxxxxxx |       0.7966 |       0.7966 |       0.7966 |xxxxxxxxxxxxx |xxxxxxxxxxxxx |xxxxxxxxxxxxx |xxxxxxxxxxxxx |       0.7945 |       0.7945 |       0.7945 |xxxxxxxxxxxxx |xxxxxxxxxxxxx |xxxxxxxxxxxxx |xxxxxxxxxxxxx |       0.7937 |       0.7937 |       0.7937 |
bpred_bimod.bpred_jr_rate                   1.0000 |       1.0000 |       1.0000 |xxxxxxxxxxxxx |xxxxxxxxxxxxx |xxxxxxxxxxxxx |xxxxxxxxxxxxx |       1.0000 |       1.0000 |       1.0000 |xxxxxxxxxxxxx |xxxxxxxxxxxxx |xxxxxxxxxxxxx |xxxxxxxxxxxxx |       1.0000 |       1.0000 |       1.0000 |xxxxxxxxxxxxx |xxxxxxxxxxxxx |xxxxxxxxxxxxx |xxxxxxxxxxxxx |       1.0000 |       1.0000 |       1.0000 |xxxxxxxxxxxxx |xxxxxxxxxxxxx |xxxxxxxxxxxxx |xxxxxxxxxxxxx |       1.0000 |       1.0000 |       1.0000 |xxxxxxxxxxxxx |xxxxxxxxxxxxx |xxxxxxxxxxxxx |xxxxxxxxxxxxx |       1.0000 |       1.0000 |       1.0000 |xxxxxxxxxxxxx |xxxxxxxxxxxxx |xxxxxxxxxxxxx |xxxxxxxxxxxxx |       1.0000 |       1.0000 |       1.0000 |xxxxxxxxxxxxx |xxxxxxxxxxxxx |xxxxxxxxxxxxx |xxxxxxxxxxxxx |       1.0000 |       1.0000 |       1.0000 |xxxxxxxxxxxxx |xxxxxxxxxxxxx |xxxxxxxxxxxxx |xxxxxxxxxxxxx |       1.0000 |       1.0000 |       1.0000 |xxxxxxxxxxxxx |xxxxxxxxxxxxx |xxxxxxxxxxxxx |xxxxxxxxxxxxx |       1.0000 |       1.0000 |       1.0000 |xxxxxxxxxxxxx |xxxxxxxxxxxxx |xxxxxxxxxxxxx |xxxxxxxxxxxxx |       1.0000 |       1.0000 |       1.0000 |
bpred_bimod.bpred_jr_non_ras_rate.PP       <error: |      <error: |      <error: |xxxxxxxxxxxxx |xxxxxxxxxxxxx |xxxxxxxxxxxxx |xxxxxxxxxxxxx |      <error: |      <error: |      <error: |xxxxxxxxxxxxx |xxxxxxxxxxxxx |xxxxxxxxxxxxx |xxxxxxxxxxxxx |      <error: |      <error: |      <error: |xxxxxxxxxxxxx |xxxxxxxxxxxxx |xxxxxxxxxxxxx |xxxxxxxxxxxxx |      <error: |      <error: |      <error: |xxxxxxxxxxxxx |xxxxxxxxxxxxx |xxxxxxxxxxxxx |xxxxxxxxxxxxx |      <error: |      <error: |      <error: |xxxxxxxxxxxxx |xxxxxxxxxxxxx |xxxxxxxxxxxxx |xxxxxxxxxxxxx |      <error: |      <error: |      <error: |xxxxxxxxxxxxx |xxxxxxxxxxxxx |xxxxxxxxxxxxx |xxxxxxxxxxxxx |      <error: |      <error: |      <error: |xxxxxxxxxxxxx |xxxxxxxxxxxxx |xxxxxxxxxxxxx |xxxxxxxxxxxxx |      <error: |      <error: |      <error: |xxxxxxxxxxxxx |xxxxxxxxxxxxx |xxxxxxxxxxxxx |xxxxxxxxxxxxx |       0.0000 |       0.0000 |       0.0000 |xxxxxxxxxxxxx |xxxxxxxxxxxxx |xxxxxxxxxxxxx |xxxxxxxxxxxxx |       0.0000 |       0.0000 |       0.0000 |xxxxxxxxxxxxx |xxxxxxxxxxxxx |xxxxxxxxxxxxx |xxxxxxxxxxxxx |       0.0000 |       0.0000 |       0.0000 |
bpred_bimod.retstack_pushes                  12655 |        12655 |        12655 |xxxxxxxxxxxxx |xxxxxxxxxxxxx |xxxxxxxxxxxxx |xxxxxxxxxxxxx |        24952 |        24952 |        24952 |xxxxxxxxxxxxx |xxxxxxxxxxxxx |xxxxxxxxxxxxx |xxxxxxxxxxxxx |        49528 |        49528 |        49528 |xxxxxxxxxxxxx |xxxxxxxxxxxxx |xxxxxxxxxxxxx |xxxxxxxxxxxxx |        98680 |        98680 |        98680 |xxxxxxxxxxxxx |xxxxxxxxxxxxx |xxxxxxxxxxxxx |xxxxxxxxxxxxx |       196984 |       196984 |       196984 |xxxxxxxxxxxxx |xxxxxxxxxxxxx |xxxxxxxxxxxxx |xxxxxxxxxxxxx |       393592 |       393592 |       393592 |xxxxxxxxxxxxx |xxxxxxxxxxxxx |xxxxxxxxxxxxx |xxxxxxxxxxxxx |       786808 |       786808 |       786808 |xxxxxxxxxxxxx |xxxxxxxxxxxxx |xxxxxxxxxxxxx |xxxxxxxxxxxxx |      1573240 |      1573240 |      1573240 |xxxxxxxxxxxxx |xxxxxxxxxxxxx |xxxxxxxxxxxxx |xxxxxxxxxxxxx |      3146106 |      3146106 |      3146106 |xxxxxxxxxxxxx |xxxxxxxxxxxxx |xxxxxxxxxxxxx |xxxxxxxxxxxxx |      6291834 |      6291834 |      6291834 |xxxxxxxxxxxxx |xxxxxxxxxxxxx |xxxxxxxxxxxxx |xxxxxxxxxxxxx |     12583290 |     12583290 |     12583290 |
bpred_bimod.retstack_pops                    12653 |        12653 |        12653 |xxxxxxxxxxxxx |xxxxxxxxxxxxx |xxxxxxxxxxxxx |xxxxxxxxxxxxx |        24950 |        24950 |        24950 |xxxxxxxxxxxxx |xxxxxxxxxxxxx |xxxxxxxxxxxxx |xxxxxxxxxxxxx |        49526 |        49526 |        49526 |xxxxxxxxxxxxx |xxxxxxxxxxxxx |xxxxxxxxxxxxx |xxxxxxxxxxxxx |        98678 |        98678 |        98678 |xxxxxxxxxxxxx |xxxxxxxxxxxxx |xxxxxxxxxxxxx |xxxxxxxxxxxxx |       196982 |       196982 |       196982 |xxxxxxxxxxxxx |xxxxxxxxxxxxx |xxxxxxxxxxxxx |xxxxxxxxxxxxx |       393590 |       393590 |       393590 |xxxxxxxxxxxxx |xxxxxxxxxxxxx |xxxxxxxxxxxxx |xxxxxxxxxxxxx |       786806 |       786806 |       786806 |xxxxxxxxxxxxx |xxxxxxxxxxxxx |xxxxxxxxxxxxx |xxxxxxxxxxxxx |      1573238 |      1573238 |      1573238 |xxxxxxxxxxxxx |xxxxxxxxxxxxx |xxxxxxxxxxxxx |xxxxxxxxxxxxx |      3146104 |      3146104 |      3146104 |xxxxxxxxxxxxx |xxxxxxxxxxxxx |xxxxxxxxxxxxx |xxxxxxxxxxxxx |      6291832 |      6291832 |      6291832 |xxxxxxxxxxxxx |xxxxxxxxxxxxx |xxxxxxxxxxxxx |xxxxxxxxxxxxx |     12583288 |     12583288 |     12583288 |
bpred_bimod.used_ras.PP                      12653 |        12653 |        12653 |xxxxxxxxxxxxx |xxxxxxxxxxxxx |xxxxxxxxxxxxx |xxxxxxxxxxxxx |        24950 |        24950 |        24950 |xxxxxxxxxxxxx |xxxxxxxxxxxxx |xxxxxxxxxxxxx |xxxxxxxxxxxxx |        49526 |        49526 |        49526 |xxxxxxxxxxxxx |xxxxxxxxxxxxx |xxxxxxxxxxxxx |xxxxxxxxxxxxx |        98678 |        98678 |        98678 |xxxxxxxxxxxxx |xxxxxxxxxxxxx |xxxxxxxxxxxxx |xxxxxxxxxxxxx |       196982 |       196982 |       196982 |xxxxxxxxxxxxx |xxxxxxxxxxxxx |xxxxxxxxxxxxx |xxxxxxxxxxxxx |       393590 |       393590 |       393590 |xxxxxxxxxxxxx |xxxxxxxxxxxxx |xxxxxxxxxxxxx |xxxxxxxxxxxxx |       786806 |       786806 |       786806 |xxxxxxxxxxxxx |xxxxxxxxxxxxx |xxxxxxxxxxxxx |xxxxxxxxxxxxx |      1573238 |      1573238 |      1573238 |xxxxxxxxxxxxx |xxxxxxxxxxxxx |xxxxxxxxxxxxx |xxxxxxxxxxxxx |      3146104 |      3146104 |      3146104 |xxxxxxxxxxxxx |xxxxxxxxxxxxx |xxxxxxxxxxxxx |xxxxxxxxxxxxx |      6291832 |      6291832 |      6291832 |xxxxxxxxxxxxx |xxxxxxxxxxxxx |xxxxxxxxxxxxx |xxxxxxxxxxxxx |     12583288 |     12583288 |     12583288 |
bpred_bimod.ras_hits.PP                      12653 |        12653 |        12653 |xxxxxxxxxxxxx |xxxxxxxxxxxxx |xxxxxxxxxxxxx |xxxxxxxxxxxxx |        24949 |        24949 |        24949 |xxxxxxxxxxxxx |xxxxxxxxxxxxx |xxxxxxxxxxxxx |xxxxxxxxxxxxx |        49525 |        49525 |        49525 |xxxxxxxxxxxxx |xxxxxxxxxxxxx |xxxxxxxxxxxxx |xxxxxxxxxxxxx |        98677 |        98677 |        98677 |xxxxxxxxxxxxx |xxxxxxxxxxxxx |xxxxxxxxxxxxx |xxxxxxxxxxxxx |       196981 |       196981 |       196981 |xxxxxxxxxxxxx |xxxxxxxxxxxxx |xxxxxxxxxxxxx |xxxxxxxxxxxxx |       393589 |       393589 |       393589 |xxxxxxxxxxxxx |xxxxxxxxxxxxx |xxxxxxxxxxxxx |xxxxxxxxxxxxx |       786805 |       786805 |       786805 |xxxxxxxxxxxxx |xxxxxxxxxxxxx |xxxxxxxxxxxxx |xxxxxxxxxxxxx |      1573237 |      1573237 |      1573237 |xxxxxxxxxxxxx |xxxxxxxxxxxxx |xxxxxxxxxxxxx |xxxxxxxxxxxxx |      3146104 |      3146104 |      3146104 |xxxxxxxxxxxxx |xxxxxxxxxxxxx |xxxxxxxxxxxxx |xxxxxxxxxxxxx |      6291832 |      6291832 |      6291832 |xxxxxxxxxxxxx |xxxxxxxxxxxxx |xxxxxxxxxxxxx |xxxxxxxxxxxxx |     12583288 |     12583288 |     12583288 |
bpred_bimod.ras_rate.PP                     1.0000 |       1.0000 |       1.0000 |xxxxxxxxxxxxx |xxxxxxxxxxxxx |xxxxxxxxxxxxx |xxxxxxxxxxxxx |       1.0000 |       1.0000 |       1.0000 |xxxxxxxxxxxxx |xxxxxxxxxxxxx |xxxxxxxxxxxxx |xxxxxxxxxxxxx |       1.0000 |       1.0000 |       1.0000 |xxxxxxxxxxxxx |xxxxxxxxxxxxx |xxxxxxxxxxxxx |xxxxxxxxxxxxx |       1.0000 |       1.0000 |       1.0000 |xxxxxxxxxxxxx |xxxxxxxxxxxxx |xxxxxxxxxxxxx |xxxxxxxxxxxxx |       1.0000 |       1.0000 |       1.0000 |xxxxxxxxxxxxx |xxxxxxxxxxxxx |xxxxxxxxxxxxx |xxxxxxxxxxxxx |       1.0000 |       1.0000 |       1.0000 |xxxxxxxxxxxxx |xxxxxxxxxxxxx |xxxxxxxxxxxxx |xxxxxxxxxxxxx |       1.0000 |       1.0000 |       1.0000 |xxxxxxxxxxxxx |xxxxxxxxxxxxx |xxxxxxxxxxxxx |xxxxxxxxxxxxx |       1.0000 |       1.0000 |       1.0000 |xxxxxxxxxxxxx |xxxxxxxxxxxxx |xxxxxxxxxxxxx |xxxxxxxxxxxxx |       1.0000 |       1.0000 |       1.0000 |xxxxxxxxxxxxx |xxxxxxxxxxxxx |xxxxxxxxxxxxx |xxxxxxxxxxxxx |       1.0000 |       1.0000 |       1.0000 |xxxxxxxxxxxxx |xxxxxxxxxxxxx |xxxxxxxxxxxxx |xxxxxxxxxxxxx |       1.0000 |       1.0000 |       1.0000 |
bpred_2lev.lookups                   xxxxxxxxxxxxx |xxxxxxxxxxxxx |xxxxxxxxxxxxx |       169557 |       169557 |       169557 |       169557 |xxxxxxxxxxxxx |xxxxxxxxxxxxx |xxxxxxxxxxxxx |       357028 |       357028 |       357028 |       357028 |xxxxxxxxxxxxx |xxxxxxxxxxxxx |xxxxxxxxxxxxx |       751920 |       751920 |       751920 |       751920 |xxxxxxxxxxxxx |xxxxxxxxxxxxx |xxxxxxxxxxxxx |      1581403 |      1581403 |      1581403 |      1581403 |xxxxxxxxxxxxx |xxxxxxxxxxxxx |xxxxxxxxxxxxx |      3327047 |      3327047 |      3327047 |      3327047 |xxxxxxxxxxxxx |xxxxxxxxxxxxx |xxxxxxxxxxxxx |      6975550 |      6975550 |      6975550 |      6975550 |xxxxxxxxxxxxx |xxxxxxxxxxxxx |xxxxxxxxxxxxx |     14612970 |     14612970 |     14612970 |     14612970 |xxxxxxxxxxxxx |xxxxxxxxxxxxx |xxxxxxxxxxxxx |     30519216 |     30519216 |     30519216 |     30519216 |xxxxxxxxxxxxx |xxxxxxxxxxxxx |xxxxxxxxxxxxx |     63689876 |     63689876 |     63689876 |     63689876 |xxxxxxxxxxxxx |xxxxxxxxxxxxx |xxxxxxxxxxxxx |    132560562 |    132560562 |    132560562 |    132560562 |xxxxxxxxxxxxx |xxxxxxxxxxxxx |xxxxxxxxxxxxx |    275721250 |    275721250 |    275721250 |    275721250 |
[...]
bpred_2lev.retstack_pushes           xxxxxxxxxxxxx |xxxxxxxxxxxxx |xxxxxxxxxxxxx |        12655 |        12655 |        12655 |        12655 |xxxxxxxxxxxxx |xxxxxxxxxxxxx |xxxxxxxxxxxxx |        24952 |        24952 |        24952 |        24952 |xxxxxxxxxxxxx |xxxxxxxxxxxxx |xxxxxxxxxxxxx |        49528 |        49528 |        49528 |        49528 |xxxxxxxxxxxxx |xxxxxxxxxxxxx |xxxxxxxxxxxxx |        98680 |        98680 |        98680 |        98680 |xxxxxxxxxxxxx |xxxxxxxxxxxxx |xxxxxxxxxxxxx |       196984 |       196984 |       196984 |       196984 |xxxxxxxxxxxxx |xxxxxxxxxxxxx |xxxxxxxxxxxxx |       393592 |       393592 |       393592 |       393592 |xxxxxxxxxxxxx |xxxxxxxxxxxxx |xxxxxxxxxxxxx |       786808 |       786808 |       786808 |       786808 |xxxxxxxxxxxxx |xxxxxxxxxxxxx |xxxxxxxxxxxxx |      1573240 |      1573240 |      1573240 |      1573240 |xxxxxxxxxxxxx |xxxxxxxxxxxxx |xxxxxxxxxxxxx |      3146106 |      3146106 |      3146106 |      3146106 |xxxxxxxxxxxxx |xxxxxxxxxxxxx |xxxxxxxxxxxxx |      6291834 |      6291834 |      6291834 |      6291834 |xxxxxxxxxxxxx |xxxxxxxxxxxxx |xxxxxxxxxxxxx |     12583290 |     12583290 |     12583290 |     12583290 |
bpred_2lev.retstack_pops             xxxxxxxxxxxxx |xxxxxxxxxxxxx |xxxxxxxxxxxxx |        12653 |        12653 |        12653 |        12653 |xxxxxxxxxxxxx |xxxxxxxxxxxxx |xxxxxxxxxxxxx |        24950 |        24950 |        24950 |        24950 |xxxxxxxxxxxxx |xxxxxxxxxxxxx |xxxxxxxxxxxxx |        49526 |        49526 |        49526 |        49526 |xxxxxxxxxxxxx |xxxxxxxxxxxxx |xxxxxxxxxxxxx |        98678 |        98678 |        98678 |        98678 |xxxxxxxxxxxxx |xxxxxxxxxxxxx |xxxxxxxxxxxxx |       196982 |       196982 |       196982 |       196982 |xxxxxxxxxxxxx |xxxxxxxxxxxxx |xxxxxxxxxxxxx |       393590 |       393590 |       393590 |       393590 |xxxxxxxxxxxxx |xxxxxxxxxxxxx |xxxxxxxxxxxxx |       786806 |       786806 |       786806 |       786806 |xxxxxxxxxxxxx |xxxxxxxxxxxxx |xxxxxxxxxxxxx |      1573238 |      1573238 |      1573238 |      1573238 |xxxxxxxxxxxxx |xxxxxxxxxxxxx |xxxxxxxxxxxxx |      3146104 |      3146104 |      3146104 |      3146104 |xxxxxxxxxxxxx |xxxxxxxxxxxxx |xxxxxxxxxxxxx |      6291832 |      6291832 |      6291832 |      6291832 |xxxxxxxxxxxxx |xxxxxxxxxxxxx |xxxxxxxxxxxxx |     12583288 |     12583288 |     12583288 |     12583288 |
bpred_2lev.used_ras.PP               xxxxxxxxxxxxx |xxxxxxxxxxxxx |xxxxxxxxxxxxx |        12653 |        12653 |        12653 |        12653 |xxxxxxxxxxxxx |xxxxxxxxxxxxx |xxxxxxxxxxxxx |        24950 |        24950 |        24950 |        24950 |xxxxxxxxxxxxx |xxxxxxxxxxxxx |xxxxxxxxxxxxx |        49526 |        49526 |        49526 |        49526 |xxxxxxxxxxxxx |xxxxxxxxxxxxx |xxxxxxxxxxxxx |        98678 |        98678 |        98678 |        98678 |xxxxxxxxxxxxx |xxxxxxxxxxxxx |xxxxxxxxxxxxx |       196982 |       196982 |       196982 |       196982 |xxxxxxxxxxxxx |xxxxxxxxxxxxx |xxxxxxxxxxxxx |       393590 |       393590 |       393590 |       393590 |xxxxxxxxxxxxx |xxxxxxxxxxxxx |xxxxxxxxxxxxx |       786806 |       786806 |       786806 |       786806 |xxxxxxxxxxxxx |xxxxxxxxxxxxx |xxxxxxxxxxxxx |      1573238 |      1573238 |      1573238 |      1573238 |xxxxxxxxxxxxx |xxxxxxxxxxxxx |xxxxxxxxxxxxx |      3146104 |      3146104 |      3146104 |      3146104 |xxxxxxxxxxxxx |xxxxxxxxxxxxx |xxxxxxxxxxxxx |      6291832 |      6291832 |      6291832 |      6291832 |xxxxxxxxxxxxx |xxxxxxxxxxxxx |xxxxxxxxxxxxx |     12583288 |     12583288 |     12583288 |     12583288 |
bpred_2lev.ras_hits.PP               xxxxxxxxxxxxx |xxxxxxxxxxxxx |xxxxxxxxxxxxx |        12653 |        12653 |        12653 |        12653 |xxxxxxxxxxxxx |xxxxxxxxxxxxx |xxxxxxxxxxxxx |        24949 |        24949 |        24949 |        24949 |xxxxxxxxxxxxx |xxxxxxxxxxxxx |xxxxxxxxxxxxx |        49525 |        49525 |        49525 |        49525 |xxxxxxxxxxxxx |xxxxxxxxxxxxx |xxxxxxxxxxxxx |        98677 |        98677 |        98677 |        98677 |xxxxxxxxxxxxx |xxxxxxxxxxxxx |xxxxxxxxxxxxx |       196981 |       196981 |       196981 |       196981 |xxxxxxxxxxxxx |xxxxxxxxxxxxx |xxxxxxxxxxxxx |       393589 |       393589 |       393589 |       393589 |xxxxxxxxxxxxx |xxxxxxxxxxxxx |xxxxxxxxxxxxx |       786805 |       786805 |       786805 |       786805 |xxxxxxxxxxxxx |xxxxxxxxxxxxx |xxxxxxxxxxxxx |      1573237 |      1573237 |      1573237 |      1573237 |xxxxxxxxxxxxx |xxxxxxxxxxxxx |xxxxxxxxxxxxx |      3146104 |      3146104 |      3146104 |      3146104 |xxxxxxxxxxxxx |xxxxxxxxxxxxx |xxxxxxxxxxxxx |      6291832 |      6291832 |      6291832 |      6291832 |xxxxxxxxxxxxx |xxxxxxxxxxxxx |xxxxxxxxxxxxx |     12583288 |     12583288 |     12583288 |     12583288 |
bpred_2lev.ras_rate.PP               xxxxxxxxxxxxx |xxxxxxxxxxxxx |xxxxxxxxxxxxx |       1.0000 |       1.0000 |       1.0000 |       1.0000 |xxxxxxxxxxxxx |xxxxxxxxxxxxx |xxxxxxxxxxxxx |       1.0000 |       1.0000 |       1.0000 |       1.0000 |xxxxxxxxxxxxx |xxxxxxxxxxxxx |xxxxxxxxxxxxx |       1.0000 |       1.0000 |       1.0000 |       1.0000 |xxxxxxxxxxxxx |xxxxxxxxxxxxx |xxxxxxxxxxxxx |       1.0000 |       1.0000 |       1.0000 |       1.0000 |xxxxxxxxxxxxx |xxxxxxxxxxxxx |xxxxxxxxxxxxx |       1.0000 |       1.0000 |       1.0000 |       1.0000 |xxxxxxxxxxxxx |xxxxxxxxxxxxx |xxxxxxxxxxxxx |       1.0000 |       1.0000 |       1.0000 |       1.0000 |xxxxxxxxxxxxx |xxxxxxxxxxxxx |xxxxxxxxxxxxx |       1.0000 |       1.0000 |       1.0000 |       1.0000 |xxxxxxxxxxxxx |xxxxxxxxxxxxx |xxxxxxxxxxxxx |       1.0000 |       1.0000 |       1.0000 |       1.0000 |xxxxxxxxxxxxx |xxxxxxxxxxxxx |xxxxxxxxxxxxx |       1.0000 |       1.0000 |       1.0000 |       1.0000 |xxxxxxxxxxxxx |xxxxxxxxxxxxx |xxxxxxxxxxxxx |       1.0000 |       1.0000 |       1.0000 |       1.0000 |xxxxxxxxxxxxx |xxxxxxxxxxxxx |xxxxxxxxxxxxx |       1.0000 |       1.0000 |       1.0000 |       1.0000 |

Command list: 
	sslittle-na-sstrix-gcc -Wall -O3 -funroll-loops -finline-functions  -DRANDOM_SIZE=4096 -DSEED=0 -DSORT=cache4_heapsort cache4_heapsort1670964212.c simpleMain.c -o cache4_heapsort1872605390
	sim-cache -cache:dl1 dl1:512:16:1:l -cache:dl2 dl2:262144:16:1:l -cache:il1 il1:512:16:1:l -cache:il2 dl2 cache4_heapsort1872605390
	sim-cache -cache:dl1 dl1:512:16:1:l -cache:dl2 dl2:131072:16:1:l -cache:il1 il1:512:16:1:l -cache:il2 dl2 cache4_heapsort1872605390
	sim-cache -cache:dl1 dl1:1:16:512:l -cache:dl2 dl2:1:16:262144:l -cache:il1 il1:1:16:512:l -cache:il2 dl2 cache4_heapsort1872605390
	sim-cache -cache:dl1 dl1:1:16:512:l -cache:dl2 dl2:1:16:131072:l -cache:il1 il1:1:16:512:l -cache:il2 dl2 cache4_heapsort1872605390
	sim-bpred -bpred bimod -bpred:bimod 512 cache4_heapsort1872605390
	sim-bpred -bpred bimod -bpred:bimod 1024 cache4_heapsort1872605390
	sim-bpred -bpred bimod -bpred:bimod 2048 cache4_heapsort1872605390
	sim-bpred -bpred 2lev -bpred:2lev 1 512 10 1 cache4_heapsort1872605390
	sim-bpred -bpred 2lev -bpred:2lev 1 1024 10 1 cache4_heapsort1872605390
	sim-bpred -bpred 2lev -bpred:2lev 1 2048 10 1 cache4_heapsort1872605390
	sim-bpred -bpred 2lev -bpred:2lev 1 4096 10 1 cache4_heapsort1872605390
	sslittle-na-sstrix-gcc -Wall -O3 -funroll-loops -finline-functions  -DRANDOM_SIZE=8192 -DSEED=0 -DSORT=cache4_heapsort cache4_heapsort1670964212.c simpleMain.c -o cache4_heapsort1872605390
	sim-cache -cache:dl1 dl1:512:16:1:l -cache:dl2 dl2:262144:16:1:l -cache:il1 il1:512:16:1:l -cache:il2 dl2 cache4_heapsort1872605390
	sim-cache -cache:dl1 dl1:512:16:1:l -cache:dl2 dl2:131072:16:1:l -cache:il1 il1:512:16:1:l -cache:il2 dl2 cache4_heapsort1872605390
	sim-cache -cache:dl1 dl1:1:16:512:l -cache:dl2 dl2:1:16:262144:l -cache:il1 il1:1:16:512:l -cache:il2 dl2 cache4_heapsort1872605390
	sim-cache -cache:dl1 dl1:1:16:512:l -cache:dl2 dl2:1:16:131072:l -cache:il1 il1:1:16:512:l -cache:il2 dl2 cache4_heapsort1872605390
	sim-bpred -bpred bimod -bpred:bimod 512 cache4_heapsort1872605390
	sim-bpred -bpred bimod -bpred:bimod 1024 cache4_heapsort1872605390
	sim-bpred -bpred bimod -bpred:bimod 2048 cache4_heapsort1872605390
	sim-bpred -bpred 2lev -bpred:2lev 1 512 10 1 cache4_heapsort1872605390
	sim-bpred -bpred 2lev -bpred:2lev 1 1024 10 1 cache4_heapsort1872605390
	sim-bpred -bpred 2lev -bpred:2lev 1 2048 10 1 cache4_heapsort1872605390
	sim-bpred -bpred 2lev -bpred:2lev 1 4096 10 1 cache4_heapsort1872605390
	sslittle-na-sstrix-gcc -Wall -O3 -funroll-loops -finline-functions  -DRANDOM_SIZE=16384 -DSEED=0 -DSORT=cache4_heapsort cache4_heapsort1670964212.c simpleMain.c -o cache4_heapsort1872605390
	sim-cache -cache:dl1 dl1:512:16:1:l -cache:dl2 dl2:262144:16:1:l -cache:il1 il1:512:16:1:l -cache:il2 dl2 cache4_heapsort1872605390
	sim-cache -cache:dl1 dl1:512:16:1:l -cache:dl2 dl2:131072:16:1:l -cache:il1 il1:512:16:1:l -cache:il2 dl2 cache4_heapsort1872605390
	sim-cache -cache:dl1 dl1:1:16:512:l -cache:dl2 dl2:1:16:262144:l -cache:il1 il1:1:16:512:l -cache:il2 dl2 cache4_heapsort1872605390
	sim-cache -cache:dl1 dl1:1:16:512:l -cache:dl2 dl2:1:16:131072:l -cache:il1 il1:1:16:512:l -cache:il2 dl2 cache4_heapsort1872605390
	sim-bpred -bpred bimod -bpred:bimod 512 cache4_heapsort1872605390
	sim-bpred -bpred bimod -bpred:bimod 1024 cache4_heapsort1872605390
	sim-bpred -bpred bimod -bpred:bimod 2048 cache4_heapsort1872605390
	sim-bpred -bpred 2lev -bpred:2lev 1 512 10 1 cache4_heapsort1872605390
	sim-bpred -bpred 2lev -bpred:2lev 1 1024 10 1 cache4_heapsort1872605390
	sim-bpred -bpred 2lev -bpred:2lev 1 2048 10 1 cache4_heapsort1872605390
	sim-bpred -bpred 2lev -bpred:2lev 1 4096 10 1 cache4_heapsort1872605390
	sslittle-na-sstrix-gcc -Wall -O3 -funroll-loops -finline-functions  -DRANDOM_SIZE=32768 -DSEED=0 -DSORT=cache4_heapsort cache4_heapsort1670964212.c simpleMain.c -o cache4_heapsort1872605390
	sim-cache -cache:dl1 dl1:512:16:1:l -cache:dl2 dl2:262144:16:1:l -cache:il1 il1:512:16:1:l -cache:il2 dl2 cache4_heapsort1872605390
	sim-cache -cache:dl1 dl1:512:16:1:l -cache:dl2 dl2:131072:16:1:l -cache:il1 il1:512:16:1:l -cache:il2 dl2 cache4_heapsort1872605390
	sim-cache -cache:dl1 dl1:1:16:512:l -cache:dl2 dl2:1:16:262144:l -cache:il1 il1:1:16:512:l -cache:il2 dl2 cache4_heapsort1872605390
	sim-cache -cache:dl1 dl1:1:16:512:l -cache:dl2 dl2:1:16:131072:l -cache:il1 il1:1:16:512:l -cache:il2 dl2 cache4_heapsort1872605390
	sim-bpred -bpred bimod -bpred:bimod 512 cache4_heapsort1872605390
	sim-bpred -bpred bimod -bpred:bimod 1024 cache4_heapsort1872605390
	sim-bpred -bpred bimod -bpred:bimod 2048 cache4_heapsort1872605390
	sim-bpred -bpred 2lev -bpred:2lev 1 512 10 1 cache4_heapsort1872605390
	sim-bpred -bpred 2lev -bpred:2lev 1 1024 10 1 cache4_heapsort1872605390
	sim-bpred -bpred 2lev -bpred:2lev 1 2048 10 1 cache4_heapsort1872605390
	sim-bpred -bpred 2lev -bpred:2lev 1 4096 10 1 cache4_heapsort1872605390
	sslittle-na-sstrix-gcc -Wall -O3 -funroll-loops -finline-functions  -DRANDOM_SIZE=65536 -DSEED=0 -DSORT=cache4_heapsort cache4_heapsort1670964212.c simpleMain.c -o cache4_heapsort1872605390
	sim-cache -cache:dl1 dl1:512:16:1:l -cache:dl2 dl2:262144:16:1:l -cache:il1 il1:512:16:1:l -cache:il2 dl2 cache4_heapsort1872605390
	sim-cache -cache:dl1 dl1:512:16:1:l -cache:dl2 dl2:131072:16:1:l -cache:il1 il1:512:16:1:l -cache:il2 dl2 cache4_heapsort1872605390
	sim-cache -cache:dl1 dl1:1:16:512:l -cache:dl2 dl2:1:16:262144:l -cache:il1 il1:1:16:512:l -cache:il2 dl2 cache4_heapsort1872605390
	sim-cache -cache:dl1 dl1:1:16:512:l -cache:dl2 dl2:1:16:131072:l -cache:il1 il1:1:16:512:l -cache:il2 dl2 cache4_heapsort1872605390
	sim-bpred -bpred bimod -bpred:bimod 512 cache4_heapsort1872605390
	sim-bpred -bpred bimod -bpred:bimod 1024 cache4_heapsort1872605390
	sim-bpred -bpred bimod -bpred:bimod 2048 cache4_heapsort1872605390
	sim-bpred -bpred 2lev -bpred:2lev 1 512 10 1 cache4_heapsort1872605390
	sim-bpred -bpred 2lev -bpred:2lev 1 1024 10 1 cache4_heapsort1872605390
	sim-bpred -bpred 2lev -bpred:2lev 1 2048 10 1 cache4_heapsort1872605390
	sim-bpred -bpred 2lev -bpred:2lev 1 4096 10 1 cache4_heapsort1872605390
	sslittle-na-sstrix-gcc -Wall -O3 -funroll-loops -finline-functions  -DRANDOM_SIZE=131072 -DSEED=0 -DSORT=cache4_heapsort cache4_heapsort1670964212.c simpleMain.c -o cache4_heapsort1872605390
	sim-cache -cache:dl1 dl1:512:16:1:l -cache:dl2 dl2:262144:16:1:l -cache:il1 il1:512:16:1:l -cache:il2 dl2 cache4_heapsort1872605390
	sim-cache -cache:dl1 dl1:512:16:1:l -cache:dl2 dl2:131072:16:1:l -cache:il1 il1:512:16:1:l -cache:il2 dl2 cache4_heapsort1872605390
	sim-cache -cache:dl1 dl1:1:16:512:l -cache:dl2 dl2:1:16:262144:l -cache:il1 il1:1:16:512:l -cache:il2 dl2 cache4_heapsort1872605390
	sim-cache -cache:dl1 dl1:1:16:512:l -cache:dl2 dl2:1:16:131072:l -cache:il1 il1:1:16:512:l -cache:il2 dl2 cache4_heapsort1872605390
	sim-bpred -bpred bimod -bpred:bimod 512 cache4_heapsort1872605390
	sim-bpred -bpred bimod -bpred:bimod 1024 cache4_heapsort1872605390
	sim-bpred -bpred bimod -bpred:bimod 2048 cache4_heapsort1872605390
	sim-bpred -bpred 2lev -bpred:2lev 1 512 10 1 cache4_heapsort1872605390
	sim-bpred -bpred 2lev -bpred:2lev 1 1024 10 1 cache4_heapsort1872605390
	sim-bpred -bpred 2lev -bpred:2lev 1 2048 10 1 cache4_heapsort1872605390
	sim-bpred -bpred 2lev -bpred:2lev 1 4096 10 1 cache4_heapsort1872605390
	sslittle-na-sstrix-gcc -Wall -O3 -funroll-loops -finline-functions  -DRANDOM_SIZE=262144 -DSEED=0 -DSORT=cache4_heapsort cache4_heapsort1670964212.c simpleMain.c -o cache4_heapsort1872605390
	sim-cache -cache:dl1 dl1:512:16:1:l -cache:dl2 dl2:262144:16:1:l -cache:il1 il1:512:16:1:l -cache:il2 dl2 cache4_heapsort1872605390
	sim-cache -cache:dl1 dl1:512:16:1:l -cache:dl2 dl2:131072:16:1:l -cache:il1 il1:512:16:1:l -cache:il2 dl2 cache4_heapsort1872605390
	sim-cache -cache:dl1 dl1:1:16:512:l -cache:dl2 dl2:1:16:262144:l -cache:il1 il1:1:16:512:l -cache:il2 dl2 cache4_heapsort1872605390
	sim-cache -cache:dl1 dl1:1:16:512:l -cache:dl2 dl2:1:16:131072:l -cache:il1 il1:1:16:512:l -cache:il2 dl2 cache4_heapsort1872605390
	sim-bpred -bpred bimod -bpred:bimod 512 cache4_heapsort1872605390
	sim-bpred -bpred bimod -bpred:bimod 1024 cache4_heapsort1872605390
	sim-bpred -bpred bimod -bpred:bimod 2048 cache4_heapsort1872605390
	sim-bpred -bpred 2lev -bpred:2lev 1 512 10 1 cache4_heapsort1872605390
	sim-bpred -bpred 2lev -bpred:2lev 1 1024 10 1 cache4_heapsort1872605390
	sim-bpred -bpred 2lev -bpred:2lev 1 2048 10 1 cache4_heapsort1872605390
	sim-bpred -bpred 2lev -bpred:2lev 1 4096 10 1 cache4_heapsort1872605390
	sslittle-na-sstrix-gcc -Wall -O3 -funroll-loops -finline-functions  -DRANDOM_SIZE=524288 -DSEED=0 -DSORT=cache4_heapsort cache4_heapsort1670964212.c simpleMain.c -o cache4_heapsort1872605390
	sim-cache -cache:dl1 dl1:512:16:1:l -cache:dl2 dl2:262144:16:1:l -cache:il1 il1:512:16:1:l -cache:il2 dl2 cache4_heapsort1872605390
	sim-cache -cache:dl1 dl1:512:16:1:l -cache:dl2 dl2:131072:16:1:l -cache:il1 il1:512:16:1:l -cache:il2 dl2 cache4_heapsort1872605390
	sim-cache -cache:dl1 dl1:1:16:512:l -cache:dl2 dl2:1:16:262144:l -cache:il1 il1:1:16:512:l -cache:il2 dl2 cache4_heapsort1872605390
	sim-cache -cache:dl1 dl1:1:16:512:l -cache:dl2 dl2:1:16:131072:l -cache:il1 il1:1:16:512:l -cache:il2 dl2 cache4_heapsort1872605390
	sim-bpred -bpred bimod -bpred:bimod 512 cache4_heapsort1872605390
	sim-bpred -bpred bimod -bpred:bimod 1024 cache4_heapsort1872605390
	sim-bpred -bpred bimod -bpred:bimod 2048 cache4_heapsort1872605390
	sim-bpred -bpred 2lev -bpred:2lev 1 512 10 1 cache4_heapsort1872605390
	sim-bpred -bpred 2lev -bpred:2lev 1 1024 10 1 cache4_heapsort1872605390
	sim-bpred -bpred 2lev -bpred:2lev 1 2048 10 1 cache4_heapsort1872605390
	sim-bpred -bpred 2lev -bpred:2lev 1 4096 10 1 cache4_heapsort1872605390
	sslittle-na-sstrix-gcc -Wall -O3 -funroll-loops -finline-functions  -DRANDOM_SIZE=1048576 -DSEED=0 -DSORT=cache4_heapsort cache4_heapsort1670964212.c simpleMain.c -o cache4_heapsort1872605390
	sim-cache -cache:dl1 dl1:512:16:1:l -cache:dl2 dl2:262144:16:1:l -cache:il1 il1:512:16:1:l -cache:il2 dl2 cache4_heapsort1872605390
	sim-cache -cache:dl1 dl1:512:16:1:l -cache:dl2 dl2:131072:16:1:l -cache:il1 il1:512:16:1:l -cache:il2 dl2 cache4_heapsort1872605390
	sim-cache -cache:dl1 dl1:1:16:512:l -cache:dl2 dl2:1:16:262144:l -cache:il1 il1:1:16:512:l -cache:il2 dl2 cache4_heapsort1872605390
	sim-cache -cache:dl1 dl1:1:16:512:l -cache:dl2 dl2:1:16:131072:l -cache:il1 il1:1:16:512:l -cache:il2 dl2 cache4_heapsort1872605390
	sim-bpred -bpred bimod -bpred:bimod 512 cache4_heapsort1872605390
	sim-bpred -bpred bimod -bpred:bimod 1024 cache4_heapsort1872605390
	sim-bpred -bpred bimod -bpred:bimod 2048 cache4_heapsort1872605390
	sim-bpred -bpred 2lev -bpred:2lev 1 512 10 1 cache4_heapsort1872605390
	sim-bpred -bpred 2lev -bpred:2lev 1 1024 10 1 cache4_heapsort1872605390
	sim-bpred -bpred 2lev -bpred:2lev 1 2048 10 1 cache4_heapsort1872605390
	sim-bpred -bpred 2lev -bpred:2lev 1 4096 10 1 cache4_heapsort1872605390
	sslittle-na-sstrix-gcc -Wall -O3 -funroll-loops -finline-functions  -DRANDOM_SIZE=2097152 -DSEED=0 -DSORT=cache4_heapsort cache4_heapsort1670964212.c simpleMain.c -o cache4_heapsort1872605390
	sim-cache -cache:dl1 dl1:512:16:1:l -cache:dl2 dl2:262144:16:1:l -cache:il1 il1:512:16:1:l -cache:il2 dl2 cache4_heapsort1872605390
	sim-cache -cache:dl1 dl1:512:16:1:l -cache:dl2 dl2:131072:16:1:l -cache:il1 il1:512:16:1:l -cache:il2 dl2 cache4_heapsort1872605390
	sim-cache -cache:dl1 dl1:1:16:512:l -cache:dl2 dl2:1:16:262144:l -cache:il1 il1:1:16:512:l -cache:il2 dl2 cache4_heapsort1872605390
	sim-cache -cache:dl1 dl1:1:16:512:l -cache:dl2 dl2:1:16:131072:l -cache:il1 il1:1:16:512:l -cache:il2 dl2 cache4_heapsort1872605390
	sim-bpred -bpred bimod -bpred:bimod 512 cache4_heapsort1872605390
	sim-bpred -bpred bimod -bpred:bimod 1024 cache4_heapsort1872605390
	sim-bpred -bpred bimod -bpred:bimod 2048 cache4_heapsort1872605390
	sim-bpred -bpred 2lev -bpred:2lev 1 512 10 1 cache4_heapsort1872605390
	sim-bpred -bpred 2lev -bpred:2lev 1 1024 10 1 cache4_heapsort1872605390
	sim-bpred -bpred 2lev -bpred:2lev 1 2048 10 1 cache4_heapsort1872605390
	sim-bpred -bpred 2lev -bpred:2lev 1 4096 10 1 cache4_heapsort1872605390
	sslittle-na-sstrix-gcc -Wall -O3 -funroll-loops -finline-functions  -DRANDOM_SIZE=4194304 -DSEED=0 -DSORT=cache4_heapsort cache4_heapsort1670964212.c simpleMain.c -o cache4_heapsort1872605390
	sim-cache -cache:dl1 dl1:512:16:1:l -cache:dl2 dl2:262144:16:1:l -cache:il1 il1:512:16:1:l -cache:il2 dl2 cache4_heapsort1872605390
	sim-cache -cache:dl1 dl1:512:16:1:l -cache:dl2 dl2:131072:16:1:l -cache:il1 il1:512:16:1:l -cache:il2 dl2 cache4_heapsort1872605390
	sim-cache -cache:dl1 dl1:1:16:512:l -cache:dl2 dl2:1:16:262144:l -cache:il1 il1:1:16:512:l -cache:il2 dl2 cache4_heapsort1872605390
	sim-cache -cache:dl1 dl1:1:16:512:l -cache:dl2 dl2:1:16:131072:l -cache:il1 il1:1:16:512:l -cache:il2 dl2 cache4_heapsort1872605390
	sim-bpred -bpred bimod -bpred:bimod 512 cache4_heapsort1872605390
	sim-bpred -bpred bimod -bpred:bimod 1024 cache4_heapsort1872605390
	sim-bpred -bpred bimod -bpred:bimod 2048 cache4_heapsort1872605390
	sim-bpred -bpred 2lev -bpred:2lev 1 512 10 1 cache4_heapsort1872605390
	sim-bpred -bpred 2lev -bpred:2lev 1 1024 10 1 cache4_heapsort1872605390
	sim-bpred -bpred 2lev -bpred:2lev 1 2048 10 1 cache4_heapsort1872605390
	sim-bpred -bpred 2lev -bpred:2lev 1 4096 10 1 cache4_heapsort1872605390
