Sat Mar 27 19:13:08 2004
Run as: "./simple -c with_insertion double_tiled_mergesort"
-------------------------------------------------------------------------------------------------
sim-cache                                     4096 |         4096 |         4096 |         4096 |         8192 |         8192 |         8192 |         8192 |        16384 |        16384 |        16384 |        16384 |        32768 |        32768 |        32768 |        32768 |        65536 |        65536 |        65536 |        65536 |       131072 |       131072 |       131072 |       131072 |       262144 |       262144 |       262144 |       262144 |       524288 |       524288 |       524288 |       524288 |      1048576 |      1048576 |      1048576 |      1048576 |      2097152 |      2097152 |      2097152 |      2097152 |      4194304 |      4194304 |      4194304 |      4194304 |
-cache:dl1 dl1:256:32:1:l -cache:dl2 dl2:131072:32:1:l -cache:il1 il1:256:32:1:l -cache:il2 dl2
-cache:dl1 dl1:256:32:1:l -cache:dl2 dl2:65536:32:1:l -cache:il1 il1:256:32:1:l -cache:il2 dl2
-cache:dl1 dl1:1:32:256:l -cache:dl2 dl2:1:32:131072:l -cache:il1 il1:1:32:256:l -cache:il2 dl2
-cache:dl1 dl1:1:32:256:l -cache:dl2 dl2:1:32:65536:l -cache:il1 il1:1:32:256:l -cache:il2 dl2
-------------------------------------------------------------------------------------------------
sim_num_insn                                898278 |       898278 |       898278 |       898278 |      1936265 |      1936265 |      1936265 |      1936265 |      4085524 |      4085524 |      4085524 |      4085524 |      8775048 |      8775048 |      8775048 |      8775048 |     18453684 |     18453684 |     18453684 |     18453684 |     39406950 |     39406950 |     39406950 |     39406950 |     82460391 |     82460391 |     82460391 |     82460391 |    174874963 |    174874963 |    174874963 |    174874963 |    364365445 |    364365445 |    364365445 |    364365445 |    768567774 |    768567774 |    768567774 |    768567774 |   1595815125 |   1595815125 |   1595815125 |   1595815125 |
sim_num_refs                                271859 |       271859 |       271859 |       271859 |       589154 |       589154 |       589154 |       589154 |      1211462 |      1211462 |      1211462 |      1211462 |      2627448 |      2627448 |      2627448 |      2627448 |      5411053 |      5411053 |      5411053 |      5411053 |     11670968 |     11670968 |     11670968 |     11670968 |     23987814 |     23987814 |     23987814 |     23987814 |     51383156 |     51383156 |     51383156 |     51383156 |    105362160 |    105362160 |    105362160 |    105362160 |    224342795 |    224342795 |    224342795 |    224342795 |    459149338 |    459149338 |    459149338 |    459149338 |
sim_elapsed_time                                 1 |            1 |           31 |           16 |            2 |            2 |           48 |           24 |            4 |            3 |           80 |           41 |            7 |            7 |          144 |           74 |           15 |           15 |          266 |          134 |           31 |           32 |          487 |          228 |           67 |           66 |          836 |          323 |          141 |          142 |         1161 |          404 |          290 |          293 |         1330 |          570 |          615 |          615 |         1678 |          929 |         1280 |         1281 |         2675 |         1390 |
sim_inst_rate                          898278.0000 |  898278.0000 |   28976.7097 |   56142.3750 |  968132.5000 |  968132.5000 |   40338.8542 |   80677.7083 | 1021381.0000 | 1361841.3333 |   51069.0500 |   99646.9268 | 1253578.2857 | 1253578.2857 |   60937.8333 |  118581.7297 | 1230245.6000 | 1230245.6000 |   69374.7519 |  137714.0597 | 1271191.9355 | 1231467.1875 |   80917.7618 |  172837.5000 | 1230752.1045 | 1249399.8636 |   98636.8313 |  255295.3282 | 1240247.9645 | 1231513.8239 |  150624.4298 |  432858.8193 | 1256432.5690 | 1243568.0717 |  273958.9812 |  639237.6228 | 1249703.6976 | 1249703.6976 |  458026.0870 |  827306.5382 | 1246730.5664 | 1245757.3185 |  596566.4019 | 1148068.4353 |
il1.accesses                                898278 |       898278 |       898278 |       898278 |      1936265 |      1936265 |      1936265 |      1936265 |      4085524 |      4085524 |      4085524 |      4085524 |      8775048 |      8775048 |      8775048 |      8775048 |     18453684 |     18453684 |     18453684 |     18453684 |     39406950 |     39406950 |     39406950 |     39406950 |     82460391 |     82460391 |     82460391 |     82460391 |    174874963 |    174874963 |    174874963 |    174874963 |    364365445 |    364365445 |    364365445 |    364365445 |    768567774 |    768567774 |    768567774 |    768567774 |   1595815125 |   1595815125 |   1595815125 |   1595815125 |
il1.hits                                    897632 |       897632 |       897678 |       897678 |      1935575 |      1935575 |      1935630 |      1935630 |      4084813 |      4084813 |      4084890 |      4084890 |      8774264 |      8774264 |      8774392 |      8774392 |     18452816 |     18452816 |     18453048 |     18453048 |     39405854 |     39405854 |     39406294 |     39406294 |     82458984 |     82458984 |     82459821 |     82459821 |    174873370 |    174873370 |    174874232 |    174874232 |    364363023 |    364363023 |    364364729 |    364364729 |    768563643 |    768563643 |    768567036 |    768567036 |   1595807639 |   1595807639 |   1595814409 |   1595814409 |
il1.misses                                     646 |          646 |          600 |          600 |          690 |          690 |          635 |          635 |          711 |          711 |          634 |          634 |          784 |          784 |          656 |          656 |          868 |          868 |          636 |          636 |         1096 |         1096 |          656 |          656 |         1407 |         1407 |          570 |          570 |         1593 |         1593 |          731 |          731 |         2422 |         2422 |          716 |          716 |         4131 |         4131 |          738 |          738 |         7486 |         7486 |          716 |          716 |
il1.replacements                               408 |          408 |          344 |          344 |          438 |          438 |          379 |          379 |          472 |          472 |          378 |          378 |          535 |          535 |          400 |          400 |          630 |          630 |          380 |          380 |          847 |          847 |          400 |          400 |         1173 |         1173 |          314 |          314 |         1337 |         1337 |          475 |          475 |         2166 |         2166 |          460 |          460 |         3875 |         3875 |          482 |          482 |         7230 |         7230 |          460 |          460 |
il1.writebacks                                   0 |            0 |            0 |            0 |            0 |            0 |            0 |            0 |            0 |            0 |            0 |            0 |            0 |            0 |            0 |            0 |            0 |            0 |            0 |            0 |            0 |            0 |            0 |            0 |            0 |            0 |            0 |            0 |            0 |            0 |            0 |            0 |            0 |            0 |            0 |            0 |            0 |            0 |            0 |            0 |            0 |            0 |            0 |            0 |
il1.invalidations                                0 |            0 |            0 |            0 |            0 |            0 |            0 |            0 |            0 |            0 |            0 |            0 |            0 |            0 |            0 |            0 |            0 |            0 |            0 |            0 |            0 |            0 |            0 |            0 |            0 |            0 |            0 |            0 |            0 |            0 |            0 |            0 |            0 |            0 |            0 |            0 |            0 |            0 |            0 |            0 |            0 |            0 |            0 |            0 |
il1.miss_rate                               0.0007 |       0.0007 |       0.0007 |       0.0007 |       0.0004 |       0.0004 |       0.0003 |       0.0003 |       0.0002 |       0.0002 |       0.0002 |       0.0002 |       0.0001 |       0.0001 |       0.0001 |       0.0001 |       0.0000 |       0.0000 |       0.0000 |       0.0000 |       0.0000 |       0.0000 |       0.0000 |       0.0000 |       0.0000 |       0.0000 |       0.0000 |       0.0000 |       0.0000 |       0.0000 |       0.0000 |       0.0000 |       0.0000 |       0.0000 |       0.0000 |       0.0000 |       0.0000 |       0.0000 |       0.0000 |       0.0000 |       0.0000 |       0.0000 |       0.0000 |       0.0000 |
il1.repl_rate                               0.0005 |       0.0005 |       0.0004 |       0.0004 |       0.0002 |       0.0002 |       0.0002 |       0.0002 |       0.0001 |       0.0001 |       0.0001 |       0.0001 |       0.0001 |       0.0001 |       0.0000 |       0.0000 |       0.0000 |       0.0000 |       0.0000 |       0.0000 |       0.0000 |       0.0000 |       0.0000 |       0.0000 |       0.0000 |       0.0000 |       0.0000 |       0.0000 |       0.0000 |       0.0000 |       0.0000 |       0.0000 |       0.0000 |       0.0000 |       0.0000 |       0.0000 |       0.0000 |       0.0000 |       0.0000 |       0.0000 |       0.0000 |       0.0000 |       0.0000 |       0.0000 |
il1.wb_rate                                 0.0000 |       0.0000 |       0.0000 |       0.0000 |       0.0000 |       0.0000 |       0.0000 |       0.0000 |       0.0000 |       0.0000 |       0.0000 |       0.0000 |       0.0000 |       0.0000 |       0.0000 |       0.0000 |       0.0000 |       0.0000 |       0.0000 |       0.0000 |       0.0000 |       0.0000 |       0.0000 |       0.0000 |       0.0000 |       0.0000 |       0.0000 |       0.0000 |       0.0000 |       0.0000 |       0.0000 |       0.0000 |       0.0000 |       0.0000 |       0.0000 |       0.0000 |       0.0000 |       0.0000 |       0.0000 |       0.0000 |       0.0000 |       0.0000 |       0.0000 |       0.0000 |
il1.inv_rate                                0.0000 |       0.0000 |       0.0000 |       0.0000 |       0.0000 |       0.0000 |       0.0000 |       0.0000 |       0.0000 |       0.0000 |       0.0000 |       0.0000 |       0.0000 |       0.0000 |       0.0000 |       0.0000 |       0.0000 |       0.0000 |       0.0000 |       0.0000 |       0.0000 |       0.0000 |       0.0000 |       0.0000 |       0.0000 |       0.0000 |       0.0000 |       0.0000 |       0.0000 |       0.0000 |       0.0000 |       0.0000 |       0.0000 |       0.0000 |       0.0000 |       0.0000 |       0.0000 |       0.0000 |       0.0000 |       0.0000 |       0.0000 |       0.0000 |       0.0000 |       0.0000 |
dl1.accesses                                271929 |       271929 |       271929 |       271929 |       589224 |       589224 |       589224 |       589224 |      1211532 |      1211532 |      1211532 |      1211532 |      2627518 |      2627518 |      2627518 |      2627518 |      5411123 |      5411123 |      5411123 |      5411123 |     11671038 |     11671038 |     11671038 |     11671038 |     23987884 |     23987884 |     23987884 |     23987884 |     51383226 |     51383226 |     51383226 |     51383226 |    105362230 |    105362230 |    105362230 |    105362230 |    224342865 |    224342865 |    224342865 |    224342865 |    459149408 |    459149408 |    459149408 |    459149408 |
dl1.hits                                    257269 |       257269 |       260309 |       260309 |       555950 |       555950 |       562344 |       562344 |      1144973 |      1144973 |      1158243 |      1158243 |      2478055 |      2478055 |      2505011 |      2505011 |      5110727 |      5110727 |      5166579 |      5166579 |     11002101 |     11002101 |     11116869 |     11116869 |     22642983 |     22642983 |     22880033 |     22880033 |     48414819 |     48414819 |     48904673 |     48904673 |     99400564 |     99400564 |    100406754 |    100406754 |    211314240 |    211314240 |    213384184 |    213384184 |    432988460 |    432988460 |    437232908 |    437232908 |
dl1.misses                                   14660 |        14660 |        11620 |        11620 |        33274 |        33274 |        26880 |        26880 |        66559 |        66559 |        53289 |        53289 |       149463 |       149463 |       122507 |       122507 |       300396 |       300396 |       244544 |       244544 |       668937 |       668937 |       554169 |       554169 |      1344901 |      1344901 |      1107851 |      1107851 |      2968407 |      2968407 |      2478553 |      2478553 |      5961666 |      5961666 |      4955476 |      4955476 |     13028625 |     13028625 |     10958681 |     10958681 |     26160948 |     26160948 |     21916500 |     21916500 |
dl1.replacements                             14404 |        14404 |        11364 |        11364 |        33018 |        33018 |        26624 |        26624 |        66303 |        66303 |        53033 |        53033 |       149207 |       149207 |       122251 |       122251 |       300140 |       300140 |       244288 |       244288 |       668681 |       668681 |       553913 |       553913 |      1344645 |      1344645 |      1107595 |      1107595 |      2968151 |      2968151 |      2478297 |      2478297 |      5961410 |      5961410 |      4955220 |      4955220 |     13028369 |     13028369 |     10958425 |     10958425 |     26160692 |     26160692 |     21916244 |     21916244 |
dl1.writebacks                                8426 |         8426 |         6463 |         6463 |        18679 |        18679 |        14671 |        14671 |        37444 |        37444 |        29032 |        29032 |        82700 |        82700 |        65951 |        65951 |       165691 |       165691 |       131591 |       131591 |       364772 |       364772 |       295647 |       295647 |       731436 |       731436 |       590984 |       590984 |      1598994 |      1598994 |      1313507 |      1313507 |      3203122 |      3203122 |      2625932 |      2625932 |      6945179 |      6945179 |      5775843 |      5775843 |     13916271 |     13916271 |     11551372 |     11551372 |
dl1.invalidations                                0 |            0 |            0 |            0 |            0 |            0 |            0 |            0 |            0 |            0 |            0 |            0 |            0 |            0 |            0 |            0 |            0 |            0 |            0 |            0 |            0 |            0 |            0 |            0 |            0 |            0 |            0 |            0 |            0 |            0 |            0 |            0 |            0 |            0 |            0 |            0 |            0 |            0 |            0 |            0 |            0 |            0 |            0 |            0 |
dl1.miss_rate                               0.0539 |       0.0539 |       0.0427 |       0.0427 |       0.0565 |       0.0565 |       0.0456 |       0.0456 |       0.0549 |       0.0549 |       0.0440 |       0.0440 |       0.0569 |       0.0569 |       0.0466 |       0.0466 |       0.0555 |       0.0555 |       0.0452 |       0.0452 |       0.0573 |       0.0573 |       0.0475 |       0.0475 |       0.0561 |       0.0561 |       0.0462 |       0.0462 |       0.0578 |       0.0578 |       0.0482 |       0.0482 |       0.0566 |       0.0566 |       0.0470 |       0.0470 |       0.0581 |       0.0581 |       0.0488 |       0.0488 |       0.0570 |       0.0570 |       0.0477 |       0.0477 |
dl1.repl_rate                               0.0530 |       0.0530 |       0.0418 |       0.0418 |       0.0560 |       0.0560 |       0.0452 |       0.0452 |       0.0547 |       0.0547 |       0.0438 |       0.0438 |       0.0568 |       0.0568 |       0.0465 |       0.0465 |       0.0555 |       0.0555 |       0.0451 |       0.0451 |       0.0573 |       0.0573 |       0.0475 |       0.0475 |       0.0561 |       0.0561 |       0.0462 |       0.0462 |       0.0578 |       0.0578 |       0.0482 |       0.0482 |       0.0566 |       0.0566 |       0.0470 |       0.0470 |       0.0581 |       0.0581 |       0.0488 |       0.0488 |       0.0570 |       0.0570 |       0.0477 |       0.0477 |
dl1.wb_rate                                 0.0310 |       0.0310 |       0.0238 |       0.0238 |       0.0317 |       0.0317 |       0.0249 |       0.0249 |       0.0309 |       0.0309 |       0.0240 |       0.0240 |       0.0315 |       0.0315 |       0.0251 |       0.0251 |       0.0306 |       0.0306 |       0.0243 |       0.0243 |       0.0313 |       0.0313 |       0.0253 |       0.0253 |       0.0305 |       0.0305 |       0.0246 |       0.0246 |       0.0311 |       0.0311 |       0.0256 |       0.0256 |       0.0304 |       0.0304 |       0.0249 |       0.0249 |       0.0310 |       0.0310 |       0.0257 |       0.0257 |       0.0303 |       0.0303 |       0.0252 |       0.0252 |
dl1.inv_rate                                0.0000 |       0.0000 |       0.0000 |       0.0000 |       0.0000 |       0.0000 |       0.0000 |       0.0000 |       0.0000 |       0.0000 |       0.0000 |       0.0000 |       0.0000 |       0.0000 |       0.0000 |       0.0000 |       0.0000 |       0.0000 |       0.0000 |       0.0000 |       0.0000 |       0.0000 |       0.0000 |       0.0000 |       0.0000 |       0.0000 |       0.0000 |       0.0000 |       0.0000 |       0.0000 |       0.0000 |       0.0000 |       0.0000 |       0.0000 |       0.0000 |       0.0000 |       0.0000 |       0.0000 |       0.0000 |       0.0000 |       0.0000 |       0.0000 |       0.0000 |       0.0000 |
dl2.accesses                                 23732 |        23732 |        18683 |        18683 |        52643 |        52643 |        42186 |        42186 |       104714 |       104714 |        82955 |        82955 |       232947 |       232947 |       189114 |       189114 |       466955 |       466955 |       376771 |       376771 |      1034805 |      1034805 |       850472 |       850472 |      2077744 |      2077744 |      1699405 |      1699405 |      4568994 |      4568994 |      3792791 |      3792791 |      9167210 |      9167210 |      7582124 |      7582124 |     19977935 |     19977935 |     16735262 |     16735262 |     40084705 |     40084705 |     33468588 |     33468588 |
dl2.hits                                     21717 |        21717 |        16700 |        16700 |        49566 |        49566 |        39141 |        39141 |        99584 |        99584 |        77869 |        77869 |       223695 |       223695 |       179909 |       179909 |       449533 |       449533 |       359395 |       359395 |      1000977 |      1000977 |       816690 |       816690 |      2011238 |      1595211 |      1632931 |      1602725 |      4427799 |      3397368 |      3641823 |      3277300 |      6830178 |      6743880 |      6662736 |      6553872 |     14080036 |     14079527 |     13848931 |     13632177 |     28290145 |     28288908 |     27697152 |     27264630 |
dl2.misses                                    2015 |         2015 |         1983 |         1983 |         3077 |         3077 |         3045 |         3045 |         5130 |         5130 |         5086 |         5086 |         9252 |         9252 |         9205 |         9205 |        17422 |        17422 |        17376 |        17376 |        33828 |        33828 |        33782 |        33782 |        66506 |       482533 |        66474 |        96680 |       141195 |      1171626 |       150968 |       515491 |      2337032 |      2423330 |       919388 |      1028252 |      5897899 |      5898408 |      2886331 |      3103085 |     11794560 |     11795797 |      5771436 |      6203958 |
dl2.replacements                               243 |          243 |            0 |            0 |          256 |          256 |            0 |            0 |          275 |          275 |            0 |            0 |          279 |          279 |            0 |            0 |          278 |          278 |            0 |            0 |          279 |          279 |            0 |            0 |          208 |       447588 |            0 |        31144 |        11183 |      1106090 |        19896 |       449955 |      2205960 |      2357794 |       788316 |       962716 |      5766827 |      5832872 |      2755259 |      3037549 |     11663488 |     11730261 |      5640364 |      6138422 |
dl2.writebacks                                 181 |          181 |            0 |            0 |          194 |          194 |            0 |            0 |          213 |          213 |            0 |            0 |          217 |          217 |            0 |            0 |          217 |          217 |            0 |            0 |          218 |          218 |            0 |            0 |          146 |       296228 |            0 |        30801 |         8943 |       664062 |        19382 |       334860 |      1409418 |      1413531 |       591070 |       700405 |      3306575 |      3372349 |      1771493 |      1956511 |      6784493 |      6828737 |      3608040 |      3944329 |
dl2.invalidations                                0 |            0 |            0 |            0 |            0 |            0 |            0 |            0 |            0 |            0 |            0 |            0 |            0 |            0 |            0 |            0 |            0 |            0 |            0 |            0 |            0 |            0 |            0 |            0 |            0 |            0 |            0 |            0 |            0 |            0 |            0 |            0 |            0 |            0 |            0 |            0 |            0 |            0 |            0 |            0 |            0 |            0 |            0 |            0 |
dl2.miss_rate                               0.0849 |       0.0849 |       0.1061 |       0.1061 |       0.0585 |       0.0585 |       0.0722 |       0.0722 |       0.0490 |       0.0490 |       0.0613 |       0.0613 |       0.0397 |       0.0397 |       0.0487 |       0.0487 |       0.0373 |       0.0373 |       0.0461 |       0.0461 |       0.0327 |       0.0327 |       0.0397 |       0.0397 |       0.0320 |       0.2322 |       0.0391 |       0.0569 |       0.0309 |       0.2564 |       0.0398 |       0.1359 |       0.2549 |       0.2643 |       0.1213 |       0.1356 |       0.2952 |       0.2952 |       0.1725 |       0.1854 |       0.2942 |       0.2943 |       0.1724 |       0.1854 |
dl2.repl_rate                               0.0102 |       0.0102 |       0.0000 |       0.0000 |       0.0049 |       0.0049 |       0.0000 |       0.0000 |       0.0026 |       0.0026 |       0.0000 |       0.0000 |       0.0012 |       0.0012 |       0.0000 |       0.0000 |       0.0006 |       0.0006 |       0.0000 |       0.0000 |       0.0003 |       0.0003 |       0.0000 |       0.0000 |       0.0001 |       0.2154 |       0.0000 |       0.0183 |       0.0024 |       0.2421 |       0.0052 |       0.1186 |       0.2406 |       0.2572 |       0.1040 |       0.1270 |       0.2887 |       0.2920 |       0.1646 |       0.1815 |       0.2910 |       0.2926 |       0.1685 |       0.1834 |
dl2.wb_rate                                 0.0076 |       0.0076 |       0.0000 |       0.0000 |       0.0037 |       0.0037 |       0.0000 |       0.0000 |       0.0020 |       0.0020 |       0.0000 |       0.0000 |       0.0009 |       0.0009 |       0.0000 |       0.0000 |       0.0005 |       0.0005 |       0.0000 |       0.0000 |       0.0002 |       0.0002 |       0.0000 |       0.0000 |       0.0001 |       0.1426 |       0.0000 |       0.0181 |       0.0020 |       0.1453 |       0.0051 |       0.0883 |       0.1537 |       0.1542 |       0.0780 |       0.0924 |       0.1655 |       0.1688 |       0.1059 |       0.1169 |       0.1693 |       0.1704 |       0.1078 |       0.1179 |
dl2.inv_rate                                0.0000 |       0.0000 |       0.0000 |       0.0000 |       0.0000 |       0.0000 |       0.0000 |       0.0000 |       0.0000 |       0.0000 |       0.0000 |       0.0000 |       0.0000 |       0.0000 |       0.0000 |       0.0000 |       0.0000 |       0.0000 |       0.0000 |       0.0000 |       0.0000 |       0.0000 |       0.0000 |       0.0000 |       0.0000 |       0.0000 |       0.0000 |       0.0000 |       0.0000 |       0.0000 |       0.0000 |       0.0000 |       0.0000 |       0.0000 |       0.0000 |       0.0000 |       0.0000 |       0.0000 |       0.0000 |       0.0000 |       0.0000 |       0.0000 |       0.0000 |       0.0000 |
itlb.accesses                               898278 |       898278 |       898278 |       898278 |      1936265 |      1936265 |      1936265 |      1936265 |      4085524 |      4085524 |      4085524 |      4085524 |      8775048 |      8775048 |      8775048 |      8775048 |     18453684 |     18453684 |     18453684 |     18453684 |     39406950 |     39406950 |     39406950 |     39406950 |     82460391 |     82460391 |     82460391 |     82460391 |    174874963 |    174874963 |    174874963 |    174874963 |    364365445 |    364365445 |    364365445 |    364365445 |    768567774 |    768567774 |    768567774 |    768567774 |   1595815125 |   1595815125 |   1595815125 |   1595815125 |
itlb.hits                                   898267 |       898267 |       898267 |       898267 |      1936254 |      1936254 |      1936254 |      1936254 |      4085513 |      4085513 |      4085513 |      4085513 |      8775037 |      8775037 |      8775037 |      8775037 |     18453673 |     18453673 |     18453673 |     18453673 |     39406939 |     39406939 |     39406939 |     39406939 |     82460380 |     82460380 |     82460380 |     82460380 |    174874952 |    174874952 |    174874952 |    174874952 |    364365434 |    364365434 |    364365434 |    364365434 |    768567763 |    768567763 |    768567763 |    768567763 |   1595815114 |   1595815114 |   1595815114 |   1595815114 |
itlb.misses                                     11 |           11 |           11 |           11 |           11 |           11 |           11 |           11 |           11 |           11 |           11 |           11 |           11 |           11 |           11 |           11 |           11 |           11 |           11 |           11 |           11 |           11 |           11 |           11 |           11 |           11 |           11 |           11 |           11 |           11 |           11 |           11 |           11 |           11 |           11 |           11 |           11 |           11 |           11 |           11 |           11 |           11 |           11 |           11 |
itlb.replacements                                0 |            0 |            0 |            0 |            0 |            0 |            0 |            0 |            0 |            0 |            0 |            0 |            0 |            0 |            0 |            0 |            0 |            0 |            0 |            0 |            0 |            0 |            0 |            0 |            0 |            0 |            0 |            0 |            0 |            0 |            0 |            0 |            0 |            0 |            0 |            0 |            0 |            0 |            0 |            0 |            0 |            0 |            0 |            0 |
itlb.writebacks                                  0 |            0 |            0 |            0 |            0 |            0 |            0 |            0 |            0 |            0 |            0 |            0 |            0 |            0 |            0 |            0 |            0 |            0 |            0 |            0 |            0 |            0 |            0 |            0 |            0 |            0 |            0 |            0 |            0 |            0 |            0 |            0 |            0 |            0 |            0 |            0 |            0 |            0 |            0 |            0 |            0 |            0 |            0 |            0 |
itlb.invalidations                               0 |            0 |            0 |            0 |            0 |            0 |            0 |            0 |            0 |            0 |            0 |            0 |            0 |            0 |            0 |            0 |            0 |            0 |            0 |            0 |            0 |            0 |            0 |            0 |            0 |            0 |            0 |            0 |            0 |            0 |            0 |            0 |            0 |            0 |            0 |            0 |            0 |            0 |            0 |            0 |            0 |            0 |            0 |            0 |
itlb.miss_rate                              0.0000 |       0.0000 |       0.0000 |       0.0000 |       0.0000 |       0.0000 |       0.0000 |       0.0000 |       0.0000 |       0.0000 |       0.0000 |       0.0000 |       0.0000 |       0.0000 |       0.0000 |       0.0000 |       0.0000 |       0.0000 |       0.0000 |       0.0000 |       0.0000 |       0.0000 |       0.0000 |       0.0000 |       0.0000 |       0.0000 |       0.0000 |       0.0000 |       0.0000 |       0.0000 |       0.0000 |       0.0000 |       0.0000 |       0.0000 |       0.0000 |       0.0000 |       0.0000 |       0.0000 |       0.0000 |       0.0000 |       0.0000 |       0.0000 |       0.0000 |       0.0000 |
itlb.repl_rate                              0.0000 |       0.0000 |       0.0000 |       0.0000 |       0.0000 |       0.0000 |       0.0000 |       0.0000 |       0.0000 |       0.0000 |       0.0000 |       0.0000 |       0.0000 |       0.0000 |       0.0000 |       0.0000 |       0.0000 |       0.0000 |       0.0000 |       0.0000 |       0.0000 |       0.0000 |       0.0000 |       0.0000 |       0.0000 |       0.0000 |       0.0000 |       0.0000 |       0.0000 |       0.0000 |       0.0000 |       0.0000 |       0.0000 |       0.0000 |       0.0000 |       0.0000 |       0.0000 |       0.0000 |       0.0000 |       0.0000 |       0.0000 |       0.0000 |       0.0000 |       0.0000 |
itlb.wb_rate                                0.0000 |       0.0000 |       0.0000 |       0.0000 |       0.0000 |       0.0000 |       0.0000 |       0.0000 |       0.0000 |       0.0000 |       0.0000 |       0.0000 |       0.0000 |       0.0000 |       0.0000 |       0.0000 |       0.0000 |       0.0000 |       0.0000 |       0.0000 |       0.0000 |       0.0000 |       0.0000 |       0.0000 |       0.0000 |       0.0000 |       0.0000 |       0.0000 |       0.0000 |       0.0000 |       0.0000 |       0.0000 |       0.0000 |       0.0000 |       0.0000 |       0.0000 |       0.0000 |       0.0000 |       0.0000 |       0.0000 |       0.0000 |       0.0000 |       0.0000 |       0.0000 |
itlb.inv_rate                               0.0000 |       0.0000 |       0.0000 |       0.0000 |       0.0000 |       0.0000 |       0.0000 |       0.0000 |       0.0000 |       0.0000 |       0.0000 |       0.0000 |       0.0000 |       0.0000 |       0.0000 |       0.0000 |       0.0000 |       0.0000 |       0.0000 |       0.0000 |       0.0000 |       0.0000 |       0.0000 |       0.0000 |       0.0000 |       0.0000 |       0.0000 |       0.0000 |       0.0000 |       0.0000 |       0.0000 |       0.0000 |       0.0000 |       0.0000 |       0.0000 |       0.0000 |       0.0000 |       0.0000 |       0.0000 |       0.0000 |       0.0000 |       0.0000 |       0.0000 |       0.0000 |
dtlb.accesses                               271929 |       271929 |       271929 |       271929 |       589224 |       589224 |       589224 |       589224 |      1211532 |      1211532 |      1211532 |      1211532 |      2627518 |      2627518 |      2627518 |      2627518 |      5411123 |      5411123 |      5411123 |      5411123 |     11671038 |     11671038 |     11671038 |     11671038 |     23987884 |     23987884 |     23987884 |     23987884 |     51383226 |     51383226 |     51383226 |     51383226 |    105362230 |    105362230 |    105362230 |    105362230 |    224342865 |    224342865 |    224342865 |    224342865 |    459149408 |    459149408 |    459149408 |    459149408 |
dtlb.hits                                   271914 |       271914 |       271914 |       271914 |       589201 |       589201 |       589201 |       589201 |      1211493 |      1211493 |      1211493 |      1211493 |      2627447 |      2627447 |      2627447 |      2627447 |      5410940 |      5410940 |      5410940 |      5410940 |     11668869 |     11668869 |     11668869 |     11668869 |     23983498 |     23983498 |     23983498 |     23983498 |     51372538 |     51372538 |     51372538 |     51372538 |    105340872 |    105340872 |    105340872 |    105340872 |    224291960 |    224291960 |    224291960 |    224291960 |    459047610 |    459047610 |    459047610 |    459047610 |
dtlb.misses                                     15 |           15 |           15 |           15 |           23 |           23 |           23 |           23 |           39 |           39 |           39 |           39 |           71 |           71 |           71 |           71 |          183 |          183 |          183 |          183 |         2169 |         2169 |         2169 |         2169 |         4386 |         4386 |         4386 |         4386 |        10688 |        10688 |        10688 |        10688 |        21358 |        21358 |        21358 |        21358 |        50905 |        50905 |        50905 |        50905 |       101798 |       101798 |       101798 |       101798 |
dtlb.replacements                                0 |            0 |            0 |            0 |            0 |            0 |            0 |            0 |            0 |            0 |            0 |            0 |            0 |            0 |            0 |            0 |           55 |           55 |           55 |           55 |         2041 |         2041 |         2041 |         2041 |         4258 |         4258 |         4258 |         4258 |        10560 |        10560 |        10560 |        10560 |        21230 |        21230 |        21230 |        21230 |        50777 |        50777 |        50777 |        50777 |       101670 |       101670 |       101670 |       101670 |
dtlb.writebacks                                  0 |            0 |            0 |            0 |            0 |            0 |            0 |            0 |            0 |            0 |            0 |            0 |            0 |            0 |            0 |            0 |           37 |           37 |           37 |           37 |         1221 |         1221 |         1221 |         1221 |         2517 |         2517 |         2517 |         2517 |         6057 |         6057 |         6057 |         6057 |        12164 |        12164 |        12164 |        12164 |        28483 |        28483 |        28483 |        28483 |        57022 |        57022 |        57022 |        57022 |
dtlb.invalidations                               0 |            0 |            0 |            0 |            0 |            0 |            0 |            0 |            0 |            0 |            0 |            0 |            0 |            0 |            0 |            0 |            0 |            0 |            0 |            0 |            0 |            0 |            0 |            0 |            0 |            0 |            0 |            0 |            0 |            0 |            0 |            0 |            0 |            0 |            0 |            0 |            0 |            0 |            0 |            0 |            0 |            0 |            0 |            0 |
dtlb.miss_rate                              0.0001 |       0.0001 |       0.0001 |       0.0001 |       0.0000 |       0.0000 |       0.0000 |       0.0000 |       0.0000 |       0.0000 |       0.0000 |       0.0000 |       0.0000 |       0.0000 |       0.0000 |       0.0000 |       0.0000 |       0.0000 |       0.0000 |       0.0000 |       0.0002 |       0.0002 |       0.0002 |       0.0002 |       0.0002 |       0.0002 |       0.0002 |       0.0002 |       0.0002 |       0.0002 |       0.0002 |       0.0002 |       0.0002 |       0.0002 |       0.0002 |       0.0002 |       0.0002 |       0.0002 |       0.0002 |       0.0002 |       0.0002 |       0.0002 |       0.0002 |       0.0002 |
dtlb.repl_rate                              0.0000 |       0.0000 |       0.0000 |       0.0000 |       0.0000 |       0.0000 |       0.0000 |       0.0000 |       0.0000 |       0.0000 |       0.0000 |       0.0000 |       0.0000 |       0.0000 |       0.0000 |       0.0000 |       0.0000 |       0.0000 |       0.0000 |       0.0000 |       0.0002 |       0.0002 |       0.0002 |       0.0002 |       0.0002 |       0.0002 |       0.0002 |       0.0002 |       0.0002 |       0.0002 |       0.0002 |       0.0002 |       0.0002 |       0.0002 |       0.0002 |       0.0002 |       0.0002 |       0.0002 |       0.0002 |       0.0002 |       0.0002 |       0.0002 |       0.0002 |       0.0002 |
dtlb.wb_rate                                0.0000 |       0.0000 |       0.0000 |       0.0000 |       0.0000 |       0.0000 |       0.0000 |       0.0000 |       0.0000 |       0.0000 |       0.0000 |       0.0000 |       0.0000 |       0.0000 |       0.0000 |       0.0000 |       0.0000 |       0.0000 |       0.0000 |       0.0000 |       0.0001 |       0.0001 |       0.0001 |       0.0001 |       0.0001 |       0.0001 |       0.0001 |       0.0001 |       0.0001 |       0.0001 |       0.0001 |       0.0001 |       0.0001 |       0.0001 |       0.0001 |       0.0001 |       0.0001 |       0.0001 |       0.0001 |       0.0001 |       0.0001 |       0.0001 |       0.0001 |       0.0001 |
dtlb.inv_rate                               0.0000 |       0.0000 |       0.0000 |       0.0000 |       0.0000 |       0.0000 |       0.0000 |       0.0000 |       0.0000 |       0.0000 |       0.0000 |       0.0000 |       0.0000 |       0.0000 |       0.0000 |       0.0000 |       0.0000 |       0.0000 |       0.0000 |       0.0000 |       0.0000 |       0.0000 |       0.0000 |       0.0000 |       0.0000 |       0.0000 |       0.0000 |       0.0000 |       0.0000 |       0.0000 |       0.0000 |       0.0000 |       0.0000 |       0.0000 |       0.0000 |       0.0000 |       0.0000 |       0.0000 |       0.0000 |       0.0000 |       0.0000 |       0.0000 |       0.0000 |       0.0000 |
ld_text_base                            0x00400000 |   0x00400000 |   0x00400000 |   0x00400000 |   0x00400000 |   0x00400000 |   0x00400000 |   0x00400000 |   0x00400000 |   0x00400000 |   0x00400000 |   0x00400000 |   0x00400000 |   0x00400000 |   0x00400000 |   0x00400000 |   0x00400000 |   0x00400000 |   0x00400000 |   0x00400000 |   0x00400000 |   0x00400000 |   0x00400000 |   0x00400000 |   0x00400000 |   0x00400000 |   0x00400000 |   0x00400000 |   0x00400000 |   0x00400000 |   0x00400000 |   0x00400000 |   0x00400000 |   0x00400000 |   0x00400000 |   0x00400000 |   0x00400000 |   0x00400000 |   0x00400000 |   0x00400000 |   0x00400000 |   0x00400000 |   0x00400000 |   0x00400000 |
ld_text_size                                 42976 |        42976 |        42976 |        42976 |        43008 |        43008 |        43008 |        43008 |        43024 |        43024 |        43024 |        43024 |        43056 |        43056 |        43056 |        43056 |        43056 |        43056 |        43056 |        43056 |        43056 |        43056 |        43056 |        43056 |        43056 |        43056 |        43056 |        43056 |        43056 |        43056 |        43056 |        43056 |        43056 |        43056 |        43056 |        43056 |        43056 |        43056 |        43056 |        43056 |        43056 |        43056 |        43056 |        43056 |
ld_data_base                            0x10000000 |   0x10000000 |   0x10000000 |   0x10000000 |   0x10000000 |   0x10000000 |   0x10000000 |   0x10000000 |   0x10000000 |   0x10000000 |   0x10000000 |   0x10000000 |   0x10000000 |   0x10000000 |   0x10000000 |   0x10000000 |   0x10000000 |   0x10000000 |   0x10000000 |   0x10000000 |   0x10000000 |   0x10000000 |   0x10000000 |   0x10000000 |   0x10000000 |   0x10000000 |   0x10000000 |   0x10000000 |   0x10000000 |   0x10000000 |   0x10000000 |   0x10000000 |   0x10000000 |   0x10000000 |   0x10000000 |   0x10000000 |   0x10000000 |   0x10000000 |   0x10000000 |   0x10000000 |   0x10000000 |   0x10000000 |   0x10000000 |   0x10000000 |
ld_data_size                                  4096 |         4096 |         4096 |         4096 |         4096 |         4096 |         4096 |         4096 |         4096 |         4096 |         4096 |         4096 |         4096 |         4096 |         4096 |         4096 |         4096 |         4096 |         4096 |         4096 |         4096 |         4096 |         4096 |         4096 |         4096 |         4096 |         4096 |         4096 |         4096 |         4096 |         4096 |         4096 |         4096 |         4096 |         4096 |         4096 |         4096 |         4096 |         4096 |         4096 |         4096 |         4096 |         4096 |         4096 |
ld_stack_base                           0x7fffc000 |   0x7fffc000 |   0x7fffc000 |   0x7fffc000 |   0x7fffc000 |   0x7fffc000 |   0x7fffc000 |   0x7fffc000 |   0x7fffc000 |   0x7fffc000 |   0x7fffc000 |   0x7fffc000 |   0x7fffc000 |   0x7fffc000 |   0x7fffc000 |   0x7fffc000 |   0x7fffc000 |   0x7fffc000 |   0x7fffc000 |   0x7fffc000 |   0x7fffc000 |   0x7fffc000 |   0x7fffc000 |   0x7fffc000 |   0x7fffc000 |   0x7fffc000 |   0x7fffc000 |   0x7fffc000 |   0x7fffc000 |   0x7fffc000 |   0x7fffc000 |   0x7fffc000 |   0x7fffc000 |   0x7fffc000 |   0x7fffc000 |   0x7fffc000 |   0x7fffc000 |   0x7fffc000 |   0x7fffc000 |   0x7fffc000 |   0x7fffc000 |   0x7fffc000 |   0x7fffc000 |   0x7fffc000 |
ld_stack_size                                16384 |        16384 |        16384 |        16384 |        16384 |        16384 |        16384 |        16384 |        16384 |        16384 |        16384 |        16384 |        16384 |        16384 |        16384 |        16384 |        16384 |        16384 |        16384 |        16384 |        16384 |        16384 |        16384 |        16384 |        16384 |        16384 |        16384 |        16384 |        16384 |        16384 |        16384 |        16384 |        16384 |        16384 |        16384 |        16384 |        16384 |        16384 |        16384 |        16384 |        16384 |        16384 |        16384 |        16384 |
ld_prog_entry                           0x00400140 |   0x00400140 |   0x00400140 |   0x00400140 |   0x00400140 |   0x00400140 |   0x00400140 |   0x00400140 |   0x00400140 |   0x00400140 |   0x00400140 |   0x00400140 |   0x00400140 |   0x00400140 |   0x00400140 |   0x00400140 |   0x00400140 |   0x00400140 |   0x00400140 |   0x00400140 |   0x00400140 |   0x00400140 |   0x00400140 |   0x00400140 |   0x00400140 |   0x00400140 |   0x00400140 |   0x00400140 |   0x00400140 |   0x00400140 |   0x00400140 |   0x00400140 |   0x00400140 |   0x00400140 |   0x00400140 |   0x00400140 |   0x00400140 |   0x00400140 |   0x00400140 |   0x00400140 |   0x00400140 |   0x00400140 |   0x00400140 |   0x00400140 |
ld_environ_base                         0x7fff8000 |   0x7fff8000 |   0x7fff8000 |   0x7fff8000 |   0x7fff8000 |   0x7fff8000 |   0x7fff8000 |   0x7fff8000 |   0x7fff8000 |   0x7fff8000 |   0x7fff8000 |   0x7fff8000 |   0x7fff8000 |   0x7fff8000 |   0x7fff8000 |   0x7fff8000 |   0x7fff8000 |   0x7fff8000 |   0x7fff8000 |   0x7fff8000 |   0x7fff8000 |   0x7fff8000 |   0x7fff8000 |   0x7fff8000 |   0x7fff8000 |   0x7fff8000 |   0x7fff8000 |   0x7fff8000 |   0x7fff8000 |   0x7fff8000 |   0x7fff8000 |   0x7fff8000 |   0x7fff8000 |   0x7fff8000 |   0x7fff8000 |   0x7fff8000 |   0x7fff8000 |   0x7fff8000 |   0x7fff8000 |   0x7fff8000 |   0x7fff8000 |   0x7fff8000 |   0x7fff8000 |   0x7fff8000 |
ld_target_big_endian                             0 |            0 |            0 |            0 |            0 |            0 |            0 |            0 |            0 |            0 |            0 |            0 |            0 |            0 |            0 |            0 |            0 |            0 |            0 |            0 |            0 |            0 |            0 |            0 |            0 |            0 |            0 |            0 |            0 |            0 |            0 |            0 |            0 |            0 |            0 |            0 |            0 |            0 |            0 |            0 |            0 |            0 |            0 |            0 |
mem.page_count                                  26 |           26 |           26 |           26 |           34 |           34 |           34 |           34 |           50 |           50 |           50 |           50 |           82 |           82 |           82 |           82 |          146 |          146 |          146 |          146 |          274 |          274 |          274 |          274 |          530 |          530 |          530 |          530 |         1048 |         1048 |         1048 |         1048 |         2072 |         2072 |         2072 |         2072 |         4126 |         4126 |         4126 |         4126 |         8234 |         8234 |         8234 |         8234 |
mem.page_mem                                  104k |         104k |         104k |         104k |         136k |         136k |         136k |         136k |         200k |         200k |         200k |         200k |         328k |         328k |         328k |         328k |         584k |         584k |         584k |         584k |        1096k |        1096k |        1096k |        1096k |        2120k |        2120k |        2120k |        2120k |        4192k |        4192k |        4192k |        4192k |        8288k |        8288k |        8288k |        8288k |       16504k |       16504k |       16504k |       16504k |       32936k |       32936k |       32936k |       32936k |
mem.ptab_misses                                 26 |           26 |           26 |           26 |           34 |           34 |           34 |           34 |           50 |           50 |           50 |           50 |           82 |           82 |           82 |           82 |          146 |          146 |          146 |          146 |          274 |          274 |          274 |          274 |          530 |          530 |          530 |          530 |         3148 |         3148 |         3148 |         3148 |        88962 |        88962 |        88962 |        88962 |        96109 |        96109 |        96109 |        96109 |       107578 |       107578 |       107578 |       107578 |
mem.ptab_accesses                          4400068 |      4400068 |      4400068 |      4400068 |      9186798 |      9186798 |      9186798 |      9186798 |     19028546 |     19028546 |     19028546 |     19028546 |     40618806 |     40618806 |     40618806 |     40618806 |     84900560 |     84900560 |     84900560 |     84900560 |    181233454 |    181233454 |    181233454 |    181233454 |    378080910 |    378080910 |    378080910 |    378080910 |    802529882 |    802529882 |    802529882 |    802529882 |   1668449818 |   1668449818 |   1668449818 |   1668449818 |   3523220404 |   3523220404 |   3523220404 |   3523220404 |   7301822894 |   7301822894 |   7301822894 |   7301822894 |
mem.ptab_miss_rate                          0.0000 |       0.0000 |       0.0000 |       0.0000 |       0.0000 |       0.0000 |       0.0000 |       0.0000 |       0.0000 |       0.0000 |       0.0000 |       0.0000 |       0.0000 |       0.0000 |       0.0000 |       0.0000 |       0.0000 |       0.0000 |       0.0000 |       0.0000 |       0.0000 |       0.0000 |       0.0000 |       0.0000 |       0.0000 |       0.0000 |       0.0000 |       0.0000 |       0.0000 |       0.0000 |       0.0000 |       0.0000 |       0.0001 |       0.0001 |       0.0001 |       0.0001 |       0.0000 |       0.0000 |       0.0000 |       0.0000 |       0.0000 |       0.0000 |       0.0000 |       0.0000 |
-------------------------------------------------------------------------------------------------
sim-bpred                                     4096 |         4096 |         4096 |         4096 |         4096 |         4096 |         4096 |         8192 |         8192 |         8192 |         8192 |         8192 |         8192 |         8192 |        16384 |        16384 |        16384 |        16384 |        16384 |        16384 |        16384 |        32768 |        32768 |        32768 |        32768 |        32768 |        32768 |        32768 |        65536 |        65536 |        65536 |        65536 |        65536 |        65536 |        65536 |       131072 |       131072 |       131072 |       131072 |       131072 |       131072 |       131072 |       262144 |       262144 |       262144 |       262144 |       262144 |       262144 |       262144 |       524288 |       524288 |       524288 |       524288 |       524288 |       524288 |       524288 |      1048576 |      1048576 |      1048576 |      1048576 |      1048576 |      1048576 |      1048576 |      2097152 |      2097152 |      2097152 |      2097152 |      2097152 |      2097152 |      2097152 |      4194304 |      4194304 |      4194304 |      4194304 |      4194304 |      4194304 |      4194304 |
-bpred bimod -bpred:bimod 512
-bpred bimod -bpred:bimod 1024
-bpred bimod -bpred:bimod 2048
-bpred 2lev -bpred:2lev 1 512 10 1
-bpred 2lev -bpred:2lev 1 1024 10 1
-bpred 2lev -bpred:2lev 1 2048 10 1
-bpred 2lev -bpred:2lev 1 4096 10 1
-------------------------------------------------------------------------------------------------
sim_num_insn                                898278 |       898278 |       898278 |       898278 |       898278 |       898278 |       898278 |      1936265 |      1936265 |      1936265 |      1936265 |      1936265 |      1936265 |      1936265 |      4085524 |      4085524 |      4085524 |      4085524 |      4085524 |      4085524 |      4085524 |      8775048 |      8775048 |      8775048 |      8775048 |      8775048 |      8775048 |      8775048 |     18453684 |     18453684 |     18453684 |     18453684 |     18453684 |     18453684 |     18453684 |     39406950 |     39406950 |     39406950 |     39406950 |     39406950 |     39406950 |     39406950 |     82460391 |     82460391 |     82460391 |     82460391 |     82460391 |     82460391 |     82460391 |    174874963 |    174874963 |    174874963 |    174874963 |    174874963 |    174874963 |    174874963 |    364365445 |    364365445 |    364365445 |    364365445 |    364365445 |    364365445 |    364365445 |    768567774 |    768567774 |    768567774 |    768567774 |    768567774 |    768567774 |    768567774 |   1595815125 |   1595815125 |   1595815125 |   1595815125 |   1595815125 |   1595815125 |   1595815125 |
sim_num_refs                                271859 |       271859 |       271859 |       271859 |       271859 |       271859 |       271859 |       589154 |       589154 |       589154 |       589154 |       589154 |       589154 |       589154 |      1211462 |      1211462 |      1211462 |      1211462 |      1211462 |      1211462 |      1211462 |      2627448 |      2627448 |      2627448 |      2627448 |      2627448 |      2627448 |      2627448 |      5411053 |      5411053 |      5411053 |      5411053 |      5411053 |      5411053 |      5411053 |     11670968 |     11670968 |     11670968 |     11670968 |     11670968 |     11670968 |     11670968 |     23987814 |     23987814 |     23987814 |     23987814 |     23987814 |     23987814 |     23987814 |     51383156 |     51383156 |     51383156 |     51383156 |     51383156 |     51383156 |     51383156 |    105362160 |    105362160 |    105362160 |    105362160 |    105362160 |    105362160 |    105362160 |    224342795 |    224342795 |    224342795 |    224342795 |    224342795 |    224342795 |    224342795 |    459149338 |    459149338 |    459149338 |    459149338 |    459149338 |    459149338 |    459149338 |
sim_elapsed_time                                 1 |            1 |            1 |            1 |            1 |            1 |            1 |            1 |            1 |            1 |            1 |            1 |            1 |            1 |            1 |            1 |            2 |            1 |            2 |            1 |            1 |            3 |            3 |            3 |            3 |            3 |            3 |            3 |            6 |            6 |            7 |            6 |            6 |            7 |            6 |           13 |           14 |           13 |           14 |           13 |           13 |           14 |           28 |           28 |           28 |           29 |           28 |           29 |           28 |           59 |           59 |           60 |           60 |           60 |           61 |           60 |          123 |          124 |          124 |          126 |          124 |          125 |          124 |          261 |          260 |          262 |          264 |          263 |          266 |          265 |          360 |          225 |          179 |          184 |          180 |          181 |          181 |
sim_inst_rate                          898278.0000 |  898278.0000 |  898278.0000 |  898278.0000 |  898278.0000 |  898278.0000 |  898278.0000 | 1936265.0000 | 1936265.0000 | 1936265.0000 | 1936265.0000 | 1936265.0000 | 1936265.0000 | 1936265.0000 | 4085524.0000 | 4085524.0000 | 2042762.0000 | 4085524.0000 | 2042762.0000 | 4085524.0000 | 4085524.0000 | 2925016.0000 | 2925016.0000 | 2925016.0000 | 2925016.0000 | 2925016.0000 | 2925016.0000 | 2925016.0000 | 3075614.0000 | 3075614.0000 | 2636240.5714 | 3075614.0000 | 3075614.0000 | 2636240.5714 | 3075614.0000 | 3031303.8462 | 2814782.1429 | 3031303.8462 | 2814782.1429 | 3031303.8462 | 3031303.8462 | 2814782.1429 | 2945013.9643 | 2945013.9643 | 2945013.9643 | 2843461.7586 | 2945013.9643 | 2843461.7586 | 2945013.9643 | 2963982.4237 | 2963982.4237 | 2914582.7167 | 2914582.7167 | 2914582.7167 | 2866802.6721 | 2914582.7167 | 2962320.6911 | 2938431.0081 | 2938431.0081 | 2891789.2460 | 2938431.0081 | 2914923.5600 | 2938431.0081 | 2944704.1149 | 2956029.9000 | 2933464.7863 | 2911241.5682 | 2922310.9278 | 2889352.5338 | 2900255.7509 | 4432819.7917 | 7092511.6667 | 8915168.2961 | 8672908.2880 | 8865639.5833 | 8816658.1492 | 8816658.1492 |
sim_num_branches                            127273 |       127273 |       127273 |       127273 |       127273 |       127273 |       127273 |       269378 |       269378 |       269378 |       269378 |       269378 |       269378 |       269378 |       566866 |       566866 |       566866 |       566866 |       566866 |       566866 |       566866 |      1200464 |      1200464 |      1200464 |      1200464 |      1200464 |      1200464 |      1200464 |      2521330 |      2521330 |      2521330 |      2521330 |      2521330 |      2521330 |      2521330 |      5322070 |      5322070 |      5322070 |      5322070 |      5322070 |      5322070 |      5322070 |     11133199 |     11133199 |     11133199 |     11133199 |     11133199 |     11133199 |     11133199 |     23379073 |     23379073 |     23379073 |     23379073 |     23379073 |     23379073 |     23379073 |     48719468 |     48719468 |     48719468 |     48719468 |     48719468 |     48719468 |     48719468 |    101900039 |    101900039 |    101900039 |    101900039 |    101900039 |    101900039 |    101900039 |    211672307 |    211672307 |    211672307 |    211672307 |    211672307 |    211672307 |    211672307 |
sim_IPB                                     7.0579 |       7.0579 |       7.0579 |       7.0579 |       7.0579 |       7.0579 |       7.0579 |       7.1879 |       7.1879 |       7.1879 |       7.1879 |       7.1879 |       7.1879 |       7.1879 |       7.2072 |       7.2072 |       7.2072 |       7.2072 |       7.2072 |       7.2072 |       7.2072 |       7.3097 |       7.3097 |       7.3097 |       7.3097 |       7.3097 |       7.3097 |       7.3097 |       7.3190 |       7.3190 |       7.3190 |       7.3190 |       7.3190 |       7.3190 |       7.3190 |       7.4044 |       7.4044 |       7.4044 |       7.4044 |       7.4044 |       7.4044 |       7.4044 |       7.4067 |       7.4067 |       7.4067 |       7.4067 |       7.4067 |       7.4067 |       7.4067 |       7.4800 |       7.4800 |       7.4800 |       7.4800 |       7.4800 |       7.4800 |       7.4800 |       7.4788 |       7.4788 |       7.4788 |       7.4788 |       7.4788 |       7.4788 |       7.4788 |       7.5424 |       7.5424 |       7.5424 |       7.5424 |       7.5424 |       7.5424 |       7.5424 |       7.5391 |       7.5391 |       7.5391 |       7.5391 |       7.5391 |       7.5391 |       7.5391 |
bpred_bimod.lookups                         127273 |       127273 |       127273 |xxxxxxxxxxxxx |xxxxxxxxxxxxx |xxxxxxxxxxxxx |xxxxxxxxxxxxx |       269378 |       269378 |       269378 |xxxxxxxxxxxxx |xxxxxxxxxxxxx |xxxxxxxxxxxxx |xxxxxxxxxxxxx |       566866 |       566866 |       566866 |xxxxxxxxxxxxx |xxxxxxxxxxxxx |xxxxxxxxxxxxx |xxxxxxxxxxxxx |      1200464 |      1200464 |      1200464 |xxxxxxxxxxxxx |xxxxxxxxxxxxx |xxxxxxxxxxxxx |xxxxxxxxxxxxx |      2521330 |      2521330 |      2521330 |xxxxxxxxxxxxx |xxxxxxxxxxxxx |xxxxxxxxxxxxx |xxxxxxxxxxxxx |      5322070 |      5322070 |      5322070 |xxxxxxxxxxxxx |xxxxxxxxxxxxx |xxxxxxxxxxxxx |xxxxxxxxxxxxx |     11133199 |     11133199 |     11133199 |xxxxxxxxxxxxx |xxxxxxxxxxxxx |xxxxxxxxxxxxx |xxxxxxxxxxxxx |     23379073 |     23379073 |     23379073 |xxxxxxxxxxxxx |xxxxxxxxxxxxx |xxxxxxxxxxxxx |xxxxxxxxxxxxx |     48719468 |     48719468 |     48719468 |xxxxxxxxxxxxx |xxxxxxxxxxxxx |xxxxxxxxxxxxx |xxxxxxxxxxxxx |    101900039 |    101900039 |    101900039 |xxxxxxxxxxxxx |xxxxxxxxxxxxx |xxxxxxxxxxxxx |xxxxxxxxxxxxx |    211672307 |    211672307 |    211672307 |
bpred_bimod.updates                         127273 |       127273 |       127273 |xxxxxxxxxxxxx |xxxxxxxxxxxxx |xxxxxxxxxxxxx |xxxxxxxxxxxxx |       269378 |       269378 |       269378 |xxxxxxxxxxxxx |xxxxxxxxxxxxx |xxxxxxxxxxxxx |xxxxxxxxxxxxx |       566866 |       566866 |       566866 |xxxxxxxxxxxxx |xxxxxxxxxxxxx |xxxxxxxxxxxxx |xxxxxxxxxxxxx |      1200464 |      1200464 |      1200464 |xxxxxxxxxxxxx |xxxxxxxxxxxxx |xxxxxxxxxxxxx |xxxxxxxxxxxxx |      2521330 |      2521330 |      2521330 |xxxxxxxxxxxxx |xxxxxxxxxxxxx |xxxxxxxxxxxxx |xxxxxxxxxxxxx |      5322070 |      5322070 |      5322070 |xxxxxxxxxxxxx |xxxxxxxxxxxxx |xxxxxxxxxxxxx |xxxxxxxxxxxxx |     11133199 |     11133199 |     11133199 |xxxxxxxxxxxxx |xxxxxxxxxxxxx |xxxxxxxxxxxxx |xxxxxxxxxxxxx |     23379073 |     23379073 |     23379073 |xxxxxxxxxxxxx |xxxxxxxxxxxxx |xxxxxxxxxxxxx |xxxxxxxxxxxxx |     48719468 |     48719468 |     48719468 |xxxxxxxxxxxxx |xxxxxxxxxxxxx |xxxxxxxxxxxxx |xxxxxxxxxxxxx |    101900039 |    101900039 |    101900039 |xxxxxxxxxxxxx |xxxxxxxxxxxxx |xxxxxxxxxxxxx |xxxxxxxxxxxxx |    211672307 |    211672307 |    211672307 |
bpred_bimod.addr_hits                       101152 |       101165 |       101168 |xxxxxxxxxxxxx |xxxxxxxxxxxxx |xxxxxxxxxxxxx |xxxxxxxxxxxxx |       213505 |       213521 |       213520 |xxxxxxxxxxxxx |xxxxxxxxxxxxx |xxxxxxxxxxxxx |xxxxxxxxxxxxx |       447243 |       447279 |       447281 |xxxxxxxxxxxxx |xxxxxxxxxxxxx |xxxxxxxxxxxxx |xxxxxxxxxxxxx |       945504 |       945569 |       945568 |xxxxxxxxxxxxx |xxxxxxxxxxxxx |xxxxxxxxxxxxx |xxxxxxxxxxxxx |      1979134 |      1979275 |      1979274 |xxxxxxxxxxxxx |xxxxxxxxxxxxx |xxxxxxxxxxxxx |xxxxxxxxxxxxx |      4171467 |      4171721 |      4171720 |xxxxxxxxxxxxx |xxxxxxxxxxxxx |xxxxxxxxxxxxx |xxxxxxxxxxxxx |      8700888 |      8701419 |      8701419 |xxxxxxxxxxxxx |xxxxxxxxxxxxx |xxxxxxxxxxxxx |xxxxxxxxxxxxx |     18250740 |     18251803 |     18251804 |xxxxxxxxxxxxx |xxxxxxxxxxxxx |xxxxxxxxxxxxx |xxxxxxxxxxxxx |     37938613 |     37940626 |     37940628 |xxxxxxxxxxxxx |xxxxxxxxxxxxx |xxxxxxxxxxxxx |xxxxxxxxxxxxx |     79288020 |     79292139 |     79292141 |xxxxxxxxxxxxx |xxxxxxxxxxxxx |xxxxxxxxxxxxx |xxxxxxxxxxxxx |    164361888 |    164370237 |    164370238 |
bpred_bimod.dir_hits                        101310 |       101323 |       101325 |xxxxxxxxxxxxx |xxxxxxxxxxxxx |xxxxxxxxxxxxx |xxxxxxxxxxxxx |       213680 |       213694 |       213691 |xxxxxxxxxxxxx |xxxxxxxxxxxxx |xxxxxxxxxxxxx |xxxxxxxxxxxxx |       447424 |       447458 |       447457 |xxxxxxxxxxxxx |xxxxxxxxxxxxx |xxxxxxxxxxxxx |xxxxxxxxxxxxx |       945690 |       945754 |       945752 |xxxxxxxxxxxxx |xxxxxxxxxxxxx |xxxxxxxxxxxxx |xxxxxxxxxxxxx |      1979317 |      1979456 |      1979453 |xxxxxxxxxxxxx |xxxxxxxxxxxxx |xxxxxxxxxxxxx |xxxxxxxxxxxxx |      4171655 |      4171906 |      4171904 |xxxxxxxxxxxxx |xxxxxxxxxxxxx |xxxxxxxxxxxxx |xxxxxxxxxxxxx |      8701054 |      8701582 |      8701580 |xxxxxxxxxxxxx |xxxxxxxxxxxxx |xxxxxxxxxxxxx |xxxxxxxxxxxxx |     18250952 |     18252011 |     18252012 |xxxxxxxxxxxxx |xxxxxxxxxxxxx |xxxxxxxxxxxxx |xxxxxxxxxxxxx |     37938826 |     37940836 |     37940838 |xxxxxxxxxxxxx |xxxxxxxxxxxxx |xxxxxxxxxxxxx |xxxxxxxxxxxxx |     79288236 |     79292351 |     79292353 |xxxxxxxxxxxxx |xxxxxxxxxxxxx |xxxxxxxxxxxxx |xxxxxxxxxxxxx |    164362104 |    164370449 |    164370449 |
bpred_bimod.misses                           25963 |        25950 |        25948 |xxxxxxxxxxxxx |xxxxxxxxxxxxx |xxxxxxxxxxxxx |xxxxxxxxxxxxx |        55698 |        55684 |        55687 |xxxxxxxxxxxxx |xxxxxxxxxxxxx |xxxxxxxxxxxxx |xxxxxxxxxxxxx |       119442 |       119408 |       119409 |xxxxxxxxxxxxx |xxxxxxxxxxxxx |xxxxxxxxxxxxx |xxxxxxxxxxxxx |       254774 |       254710 |       254712 |xxxxxxxxxxxxx |xxxxxxxxxxxxx |xxxxxxxxxxxxx |xxxxxxxxxxxxx |       542013 |       541874 |       541877 |xxxxxxxxxxxxx |xxxxxxxxxxxxx |xxxxxxxxxxxxx |xxxxxxxxxxxxx |      1150415 |      1150164 |      1150166 |xxxxxxxxxxxxx |xxxxxxxxxxxxx |xxxxxxxxxxxxx |xxxxxxxxxxxxx |      2432145 |      2431617 |      2431619 |xxxxxxxxxxxxx |xxxxxxxxxxxxx |xxxxxxxxxxxxx |xxxxxxxxxxxxx |      5128121 |      5127062 |      5127061 |xxxxxxxxxxxxx |xxxxxxxxxxxxx |xxxxxxxxxxxxx |xxxxxxxxxxxxx |     10780642 |     10778632 |     10778630 |xxxxxxxxxxxxx |xxxxxxxxxxxxx |xxxxxxxxxxxxx |xxxxxxxxxxxxx |     22611803 |     22607688 |     22607686 |xxxxxxxxxxxxx |xxxxxxxxxxxxx |xxxxxxxxxxxxx |xxxxxxxxxxxxx |     47310203 |     47301858 |     47301858 |
bpred_bimod.jr_hits                           8571 |         8571 |         8571 |xxxxxxxxxxxxx |xxxxxxxxxxxxx |xxxxxxxxxxxxx |xxxxxxxxxxxxx |        16769 |        16769 |        16769 |xxxxxxxxxxxxx |xxxxxxxxxxxxx |xxxxxxxxxxxxx |xxxxxxxxxxxxx |        33159 |        33159 |        33159 |xxxxxxxxxxxxx |xxxxxxxxxxxxx |xxxxxxxxxxxxx |xxxxxxxxxxxxx |        65945 |        65945 |        65945 |xxxxxxxxxxxxx |xxxxxxxxxxxxx |xxxxxxxxxxxxx |xxxxxxxxxxxxx |       131511 |       131511 |       131511 |xxxxxxxxxxxxx |xxxxxxxxxxxxx |xxxxxxxxxxxxx |xxxxxxxxxxxxx |       262649 |       262649 |       262649 |xxxxxxxxxxxxx |xxxxxxxxxxxxx |xxxxxxxxxxxxx |xxxxxxxxxxxxx |       524919 |       524919 |       524919 |xxxxxxxxxxxxx |xxxxxxxxxxxxx |xxxxxxxxxxxxx |xxxxxxxxxxxxx |      1049471 |      1049471 |      1049471 |xxxxxxxxxxxxx |xxxxxxxxxxxxx |xxxxxxxxxxxxx |xxxxxxxxxxxxx |      2098558 |      2098558 |      2098558 |xxxxxxxxxxxxx |xxxxxxxxxxxxx |xxxxxxxxxxxxx |xxxxxxxxxxxxx |      4196741 |      4196741 |      4196741 |xxxxxxxxxxxxx |xxxxxxxxxxxxx |xxxxxxxxxxxxx |xxxxxxxxxxxxx |      8393098 |      8393098 |      8393098 |
bpred_bimod.jr_seen                           8572 |         8572 |         8572 |xxxxxxxxxxxxx |xxxxxxxxxxxxx |xxxxxxxxxxxxx |xxxxxxxxxxxxx |        16771 |        16771 |        16771 |xxxxxxxxxxxxx |xxxxxxxxxxxxx |xxxxxxxxxxxxx |xxxxxxxxxxxxx |        33160 |        33160 |        33160 |xxxxxxxxxxxxx |xxxxxxxxxxxxx |xxxxxxxxxxxxx |xxxxxxxxxxxxx |        65947 |        65947 |        65947 |xxxxxxxxxxxxx |xxxxxxxxxxxxx |xxxxxxxxxxxxx |xxxxxxxxxxxxx |       131512 |       131512 |       131512 |xxxxxxxxxxxxx |xxxxxxxxxxxxx |xxxxxxxxxxxxx |xxxxxxxxxxxxx |       262651 |       262651 |       262651 |xxxxxxxxxxxxx |xxxxxxxxxxxxx |xxxxxxxxxxxxx |xxxxxxxxxxxxx |       524920 |       524920 |       524920 |xxxxxxxxxxxxx |xxxxxxxxxxxxx |xxxxxxxxxxxxx |xxxxxxxxxxxxx |      1049472 |      1049472 |      1049472 |xxxxxxxxxxxxx |xxxxxxxxxxxxx |xxxxxxxxxxxxx |xxxxxxxxxxxxx |      2098559 |      2098559 |      2098559 |xxxxxxxxxxxxx |xxxxxxxxxxxxx |xxxxxxxxxxxxx |xxxxxxxxxxxxx |      4196742 |      4196742 |      4196742 |xxxxxxxxxxxxx |xxxxxxxxxxxxx |xxxxxxxxxxxxx |xxxxxxxxxxxxx |      8393099 |      8393099 |      8393099 |
bpred_bimod.jr_non_ras_hits.PP                   0 |            0 |            0 |xxxxxxxxxxxxx |xxxxxxxxxxxxx |xxxxxxxxxxxxx |xxxxxxxxxxxxx |            0 |            0 |            0 |xxxxxxxxxxxxx |xxxxxxxxxxxxx |xxxxxxxxxxxxx |xxxxxxxxxxxxx |            0 |            0 |            0 |xxxxxxxxxxxxx |xxxxxxxxxxxxx |xxxxxxxxxxxxx |xxxxxxxxxxxxx |            0 |            0 |            0 |xxxxxxxxxxxxx |xxxxxxxxxxxxx |xxxxxxxxxxxxx |xxxxxxxxxxxxx |            0 |            0 |            0 |xxxxxxxxxxxxx |xxxxxxxxxxxxx |xxxxxxxxxxxxx |xxxxxxxxxxxxx |            0 |            0 |            0 |xxxxxxxxxxxxx |xxxxxxxxxxxxx |xxxxxxxxxxxxx |xxxxxxxxxxxxx |            0 |            0 |            0 |xxxxxxxxxxxxx |xxxxxxxxxxxxx |xxxxxxxxxxxxx |xxxxxxxxxxxxx |            1 |            1 |            1 |xxxxxxxxxxxxx |xxxxxxxxxxxxx |xxxxxxxxxxxxx |xxxxxxxxxxxxx |            0 |            0 |            0 |xxxxxxxxxxxxx |xxxxxxxxxxxxx |xxxxxxxxxxxxx |xxxxxxxxxxxxx |            1 |            1 |            1 |xxxxxxxxxxxxx |xxxxxxxxxxxxx |xxxxxxxxxxxxx |xxxxxxxxxxxxx |            0 |            0 |            0 |
bpred_bimod.jr_non_ras_seen.PP                   0 |            0 |            0 |xxxxxxxxxxxxx |xxxxxxxxxxxxx |xxxxxxxxxxxxx |xxxxxxxxxxxxx |            1 |            1 |            1 |xxxxxxxxxxxxx |xxxxxxxxxxxxx |xxxxxxxxxxxxx |xxxxxxxxxxxxx |            0 |            0 |            0 |xxxxxxxxxxxxx |xxxxxxxxxxxxx |xxxxxxxxxxxxx |xxxxxxxxxxxxx |            1 |            1 |            1 |xxxxxxxxxxxxx |xxxxxxxxxxxxx |xxxxxxxxxxxxx |xxxxxxxxxxxxx |            0 |            0 |            0 |xxxxxxxxxxxxx |xxxxxxxxxxxxx |xxxxxxxxxxxxx |xxxxxxxxxxxxx |            1 |            1 |            1 |xxxxxxxxxxxxx |xxxxxxxxxxxxx |xxxxxxxxxxxxx |xxxxxxxxxxxxx |            0 |            0 |            0 |xxxxxxxxxxxxx |xxxxxxxxxxxxx |xxxxxxxxxxxxx |xxxxxxxxxxxxx |            2 |            2 |            2 |xxxxxxxxxxxxx |xxxxxxxxxxxxx |xxxxxxxxxxxxx |xxxxxxxxxxxxx |            1 |            1 |            1 |xxxxxxxxxxxxx |xxxxxxxxxxxxx |xxxxxxxxxxxxx |xxxxxxxxxxxxx |            2 |            2 |            2 |xxxxxxxxxxxxx |xxxxxxxxxxxxx |xxxxxxxxxxxxx |xxxxxxxxxxxxx |            1 |            1 |            1 |
bpred_bimod.bpred_addr_rate                 0.7948 |       0.7949 |       0.7949 |xxxxxxxxxxxxx |xxxxxxxxxxxxx |xxxxxxxxxxxxx |xxxxxxxxxxxxx |       0.7926 |       0.7926 |       0.7926 |xxxxxxxxxxxxx |xxxxxxxxxxxxx |xxxxxxxxxxxxx |xxxxxxxxxxxxx |       0.7890 |       0.7890 |       0.7890 |xxxxxxxxxxxxx |xxxxxxxxxxxxx |xxxxxxxxxxxxx |xxxxxxxxxxxxx |       0.7876 |       0.7877 |       0.7877 |xxxxxxxxxxxxx |xxxxxxxxxxxxx |xxxxxxxxxxxxx |xxxxxxxxxxxxx |       0.7850 |       0.7850 |       0.7850 |xxxxxxxxxxxxx |xxxxxxxxxxxxx |xxxxxxxxxxxxx |xxxxxxxxxxxxx |       0.7838 |       0.7839 |       0.7839 |xxxxxxxxxxxxx |xxxxxxxxxxxxx |xxxxxxxxxxxxx |xxxxxxxxxxxxx |       0.7815 |       0.7816 |       0.7816 |xxxxxxxxxxxxx |xxxxxxxxxxxxx |xxxxxxxxxxxxx |xxxxxxxxxxxxx |       0.7806 |       0.7807 |       0.7807 |xxxxxxxxxxxxx |xxxxxxxxxxxxx |xxxxxxxxxxxxx |xxxxxxxxxxxxx |       0.7787 |       0.7788 |       0.7788 |xxxxxxxxxxxxx |xxxxxxxxxxxxx |xxxxxxxxxxxxx |xxxxxxxxxxxxx |       0.7781 |       0.7781 |       0.7781 |xxxxxxxxxxxxx |xxxxxxxxxxxxx |xxxxxxxxxxxxx |xxxxxxxxxxxxx |       0.7765 |       0.7765 |       0.7765 |
bpred_bimod.bpred_dir_rate                  0.7960 |       0.7961 |       0.7961 |xxxxxxxxxxxxx |xxxxxxxxxxxxx |xxxxxxxxxxxxx |xxxxxxxxxxxxx |       0.7932 |       0.7933 |       0.7933 |xxxxxxxxxxxxx |xxxxxxxxxxxxx |xxxxxxxxxxxxx |xxxxxxxxxxxxx |       0.7893 |       0.7894 |       0.7894 |xxxxxxxxxxxxx |xxxxxxxxxxxxx |xxxxxxxxxxxxx |xxxxxxxxxxxxx |       0.7878 |       0.7878 |       0.7878 |xxxxxxxxxxxxx |xxxxxxxxxxxxx |xxxxxxxxxxxxx |xxxxxxxxxxxxx |       0.7850 |       0.7851 |       0.7851 |xxxxxxxxxxxxx |xxxxxxxxxxxxx |xxxxxxxxxxxxx |xxxxxxxxxxxxx |       0.7838 |       0.7839 |       0.7839 |xxxxxxxxxxxxx |xxxxxxxxxxxxx |xxxxxxxxxxxxx |xxxxxxxxxxxxx |       0.7815 |       0.7816 |       0.7816 |xxxxxxxxxxxxx |xxxxxxxxxxxxx |xxxxxxxxxxxxx |xxxxxxxxxxxxx |       0.7807 |       0.7807 |       0.7807 |xxxxxxxxxxxxx |xxxxxxxxxxxxx |xxxxxxxxxxxxx |xxxxxxxxxxxxx |       0.7787 |       0.7788 |       0.7788 |xxxxxxxxxxxxx |xxxxxxxxxxxxx |xxxxxxxxxxxxx |xxxxxxxxxxxxx |       0.7781 |       0.7781 |       0.7781 |xxxxxxxxxxxxx |xxxxxxxxxxxxx |xxxxxxxxxxxxx |xxxxxxxxxxxxx |       0.7765 |       0.7765 |       0.7765 |
bpred_bimod.bpred_jr_rate                   0.9999 |       0.9999 |       0.9999 |xxxxxxxxxxxxx |xxxxxxxxxxxxx |xxxxxxxxxxxxx |xxxxxxxxxxxxx |       0.9999 |       0.9999 |       0.9999 |xxxxxxxxxxxxx |xxxxxxxxxxxxx |xxxxxxxxxxxxx |xxxxxxxxxxxxx |       1.0000 |       1.0000 |       1.0000 |xxxxxxxxxxxxx |xxxxxxxxxxxxx |xxxxxxxxxxxxx |xxxxxxxxxxxxx |       1.0000 |       1.0000 |       1.0000 |xxxxxxxxxxxxx |xxxxxxxxxxxxx |xxxxxxxxxxxxx |xxxxxxxxxxxxx |       1.0000 |       1.0000 |       1.0000 |xxxxxxxxxxxxx |xxxxxxxxxxxxx |xxxxxxxxxxxxx |xxxxxxxxxxxxx |       1.0000 |       1.0000 |       1.0000 |xxxxxxxxxxxxx |xxxxxxxxxxxxx |xxxxxxxxxxxxx |xxxxxxxxxxxxx |       1.0000 |       1.0000 |       1.0000 |xxxxxxxxxxxxx |xxxxxxxxxxxxx |xxxxxxxxxxxxx |xxxxxxxxxxxxx |       1.0000 |       1.0000 |       1.0000 |xxxxxxxxxxxxx |xxxxxxxxxxxxx |xxxxxxxxxxxxx |xxxxxxxxxxxxx |       1.0000 |       1.0000 |       1.0000 |xxxxxxxxxxxxx |xxxxxxxxxxxxx |xxxxxxxxxxxxx |xxxxxxxxxxxxx |       1.0000 |       1.0000 |       1.0000 |xxxxxxxxxxxxx |xxxxxxxxxxxxx |xxxxxxxxxxxxx |xxxxxxxxxxxxx |       1.0000 |       1.0000 |       1.0000 |
bpred_bimod.bpred_jr_non_ras_rate.PP       <error: |      <error: |      <error: |xxxxxxxxxxxxx |xxxxxxxxxxxxx |xxxxxxxxxxxxx |xxxxxxxxxxxxx |       0.0000 |       0.0000 |       0.0000 |xxxxxxxxxxxxx |xxxxxxxxxxxxx |xxxxxxxxxxxxx |xxxxxxxxxxxxx |      <error: |      <error: |      <error: |xxxxxxxxxxxxx |xxxxxxxxxxxxx |xxxxxxxxxxxxx |xxxxxxxxxxxxx |       0.0000 |       0.0000 |       0.0000 |xxxxxxxxxxxxx |xxxxxxxxxxxxx |xxxxxxxxxxxxx |xxxxxxxxxxxxx |      <error: |      <error: |      <error: |xxxxxxxxxxxxx |xxxxxxxxxxxxx |xxxxxxxxxxxxx |xxxxxxxxxxxxx |       0.0000 |       0.0000 |       0.0000 |xxxxxxxxxxxxx |xxxxxxxxxxxxx |xxxxxxxxxxxxx |xxxxxxxxxxxxx |      <error: |      <error: |      <error: |xxxxxxxxxxxxx |xxxxxxxxxxxxx |xxxxxxxxxxxxx |xxxxxxxxxxxxx |       0.5000 |       0.5000 |       0.5000 |xxxxxxxxxxxxx |xxxxxxxxxxxxx |xxxxxxxxxxxxx |xxxxxxxxxxxxx |       0.0000 |       0.0000 |       0.0000 |xxxxxxxxxxxxx |xxxxxxxxxxxxx |xxxxxxxxxxxxx |xxxxxxxxxxxxx |       0.5000 |       0.5000 |       0.5000 |xxxxxxxxxxxxx |xxxxxxxxxxxxx |xxxxxxxxxxxxx |xxxxxxxxxxxxx |       0.0000 |       0.0000 |       0.0000 |
bpred_bimod.retstack_pushes                   8574 |         8574 |         8574 |xxxxxxxxxxxxx |xxxxxxxxxxxxx |xxxxxxxxxxxxx |xxxxxxxxxxxxx |        16772 |        16772 |        16772 |xxxxxxxxxxxxx |xxxxxxxxxxxxx |xxxxxxxxxxxxx |xxxxxxxxxxxxx |        33162 |        33162 |        33162 |xxxxxxxxxxxxx |xxxxxxxxxxxxx |xxxxxxxxxxxxx |xxxxxxxxxxxxx |        65948 |        65948 |        65948 |xxxxxxxxxxxxx |xxxxxxxxxxxxx |xxxxxxxxxxxxx |xxxxxxxxxxxxx |       131514 |       131514 |       131514 |xxxxxxxxxxxxx |xxxxxxxxxxxxx |xxxxxxxxxxxxx |xxxxxxxxxxxxx |       262652 |       262652 |       262652 |xxxxxxxxxxxxx |xxxxxxxxxxxxx |xxxxxxxxxxxxx |xxxxxxxxxxxxx |       524922 |       524922 |       524922 |xxxxxxxxxxxxx |xxxxxxxxxxxxx |xxxxxxxxxxxxx |xxxxxxxxxxxxx |      1049472 |      1049472 |      1049472 |xxxxxxxxxxxxx |xxxxxxxxxxxxx |xxxxxxxxxxxxx |xxxxxxxxxxxxx |      2098560 |      2098560 |      2098560 |xxxxxxxxxxxxx |xxxxxxxxxxxxx |xxxxxxxxxxxxx |xxxxxxxxxxxxx |      4196742 |      4196742 |      4196742 |xxxxxxxxxxxxx |xxxxxxxxxxxxx |xxxxxxxxxxxxx |xxxxxxxxxxxxx |      8393100 |      8393100 |      8393100 |
bpred_bimod.retstack_pops                     8572 |         8572 |         8572 |xxxxxxxxxxxxx |xxxxxxxxxxxxx |xxxxxxxxxxxxx |xxxxxxxxxxxxx |        16770 |        16770 |        16770 |xxxxxxxxxxxxx |xxxxxxxxxxxxx |xxxxxxxxxxxxx |xxxxxxxxxxxxx |        33160 |        33160 |        33160 |xxxxxxxxxxxxx |xxxxxxxxxxxxx |xxxxxxxxxxxxx |xxxxxxxxxxxxx |        65946 |        65946 |        65946 |xxxxxxxxxxxxx |xxxxxxxxxxxxx |xxxxxxxxxxxxx |xxxxxxxxxxxxx |       131512 |       131512 |       131512 |xxxxxxxxxxxxx |xxxxxxxxxxxxx |xxxxxxxxxxxxx |xxxxxxxxxxxxx |       262650 |       262650 |       262650 |xxxxxxxxxxxxx |xxxxxxxxxxxxx |xxxxxxxxxxxxx |xxxxxxxxxxxxx |       524920 |       524920 |       524920 |xxxxxxxxxxxxx |xxxxxxxxxxxxx |xxxxxxxxxxxxx |xxxxxxxxxxxxx |      1049470 |      1049470 |      1049470 |xxxxxxxxxxxxx |xxxxxxxxxxxxx |xxxxxxxxxxxxx |xxxxxxxxxxxxx |      2098558 |      2098558 |      2098558 |xxxxxxxxxxxxx |xxxxxxxxxxxxx |xxxxxxxxxxxxx |xxxxxxxxxxxxx |      4196740 |      4196740 |      4196740 |xxxxxxxxxxxxx |xxxxxxxxxxxxx |xxxxxxxxxxxxx |xxxxxxxxxxxxx |      8393098 |      8393098 |      8393098 |
bpred_bimod.used_ras.PP                       8572 |         8572 |         8572 |xxxxxxxxxxxxx |xxxxxxxxxxxxx |xxxxxxxxxxxxx |xxxxxxxxxxxxx |        16770 |        16770 |        16770 |xxxxxxxxxxxxx |xxxxxxxxxxxxx |xxxxxxxxxxxxx |xxxxxxxxxxxxx |        33160 |        33160 |        33160 |xxxxxxxxxxxxx |xxxxxxxxxxxxx |xxxxxxxxxxxxx |xxxxxxxxxxxxx |        65946 |        65946 |        65946 |xxxxxxxxxxxxx |xxxxxxxxxxxxx |xxxxxxxxxxxxx |xxxxxxxxxxxxx |       131512 |       131512 |       131512 |xxxxxxxxxxxxx |xxxxxxxxxxxxx |xxxxxxxxxxxxx |xxxxxxxxxxxxx |       262650 |       262650 |       262650 |xxxxxxxxxxxxx |xxxxxxxxxxxxx |xxxxxxxxxxxxx |xxxxxxxxxxxxx |       524920 |       524920 |       524920 |xxxxxxxxxxxxx |xxxxxxxxxxxxx |xxxxxxxxxxxxx |xxxxxxxxxxxxx |      1049470 |      1049470 |      1049470 |xxxxxxxxxxxxx |xxxxxxxxxxxxx |xxxxxxxxxxxxx |xxxxxxxxxxxxx |      2098558 |      2098558 |      2098558 |xxxxxxxxxxxxx |xxxxxxxxxxxxx |xxxxxxxxxxxxx |xxxxxxxxxxxxx |      4196740 |      4196740 |      4196740 |xxxxxxxxxxxxx |xxxxxxxxxxxxx |xxxxxxxxxxxxx |xxxxxxxxxxxxx |      8393098 |      8393098 |      8393098 |
bpred_bimod.ras_hits.PP                       8571 |         8571 |         8571 |xxxxxxxxxxxxx |xxxxxxxxxxxxx |xxxxxxxxxxxxx |xxxxxxxxxxxxx |        16769 |        16769 |        16769 |xxxxxxxxxxxxx |xxxxxxxxxxxxx |xxxxxxxxxxxxx |xxxxxxxxxxxxx |        33159 |        33159 |        33159 |xxxxxxxxxxxxx |xxxxxxxxxxxxx |xxxxxxxxxxxxx |xxxxxxxxxxxxx |        65945 |        65945 |        65945 |xxxxxxxxxxxxx |xxxxxxxxxxxxx |xxxxxxxxxxxxx |xxxxxxxxxxxxx |       131511 |       131511 |       131511 |xxxxxxxxxxxxx |xxxxxxxxxxxxx |xxxxxxxxxxxxx |xxxxxxxxxxxxx |       262649 |       262649 |       262649 |xxxxxxxxxxxxx |xxxxxxxxxxxxx |xxxxxxxxxxxxx |xxxxxxxxxxxxx |       524919 |       524919 |       524919 |xxxxxxxxxxxxx |xxxxxxxxxxxxx |xxxxxxxxxxxxx |xxxxxxxxxxxxx |      1049470 |      1049470 |      1049470 |xxxxxxxxxxxxx |xxxxxxxxxxxxx |xxxxxxxxxxxxx |xxxxxxxxxxxxx |      2098558 |      2098558 |      2098558 |xxxxxxxxxxxxx |xxxxxxxxxxxxx |xxxxxxxxxxxxx |xxxxxxxxxxxxx |      4196740 |      4196740 |      4196740 |xxxxxxxxxxxxx |xxxxxxxxxxxxx |xxxxxxxxxxxxx |xxxxxxxxxxxxx |      8393098 |      8393098 |      8393098 |
bpred_bimod.ras_rate.PP                     0.9999 |       0.9999 |       0.9999 |xxxxxxxxxxxxx |xxxxxxxxxxxxx |xxxxxxxxxxxxx |xxxxxxxxxxxxx |       0.9999 |       0.9999 |       0.9999 |xxxxxxxxxxxxx |xxxxxxxxxxxxx |xxxxxxxxxxxxx |xxxxxxxxxxxxx |       1.0000 |       1.0000 |       1.0000 |xxxxxxxxxxxxx |xxxxxxxxxxxxx |xxxxxxxxxxxxx |xxxxxxxxxxxxx |       1.0000 |       1.0000 |       1.0000 |xxxxxxxxxxxxx |xxxxxxxxxxxxx |xxxxxxxxxxxxx |xxxxxxxxxxxxx |       1.0000 |       1.0000 |       1.0000 |xxxxxxxxxxxxx |xxxxxxxxxxxxx |xxxxxxxxxxxxx |xxxxxxxxxxxxx |       1.0000 |       1.0000 |       1.0000 |xxxxxxxxxxxxx |xxxxxxxxxxxxx |xxxxxxxxxxxxx |xxxxxxxxxxxxx |       1.0000 |       1.0000 |       1.0000 |xxxxxxxxxxxxx |xxxxxxxxxxxxx |xxxxxxxxxxxxx |xxxxxxxxxxxxx |       1.0000 |       1.0000 |       1.0000 |xxxxxxxxxxxxx |xxxxxxxxxxxxx |xxxxxxxxxxxxx |xxxxxxxxxxxxx |       1.0000 |       1.0000 |       1.0000 |xxxxxxxxxxxxx |xxxxxxxxxxxxx |xxxxxxxxxxxxx |xxxxxxxxxxxxx |       1.0000 |       1.0000 |       1.0000 |xxxxxxxxxxxxx |xxxxxxxxxxxxx |xxxxxxxxxxxxx |xxxxxxxxxxxxx |       1.0000 |       1.0000 |       1.0000 |
bpred_2lev.lookups                   xxxxxxxxxxxxx |xxxxxxxxxxxxx |xxxxxxxxxxxxx |       127273 |       127273 |       127273 |       127273 |xxxxxxxxxxxxx |xxxxxxxxxxxxx |xxxxxxxxxxxxx |       269378 |       269378 |       269378 |       269378 |xxxxxxxxxxxxx |xxxxxxxxxxxxx |xxxxxxxxxxxxx |       566866 |       566866 |       566866 |       566866 |xxxxxxxxxxxxx |xxxxxxxxxxxxx |xxxxxxxxxxxxx |      1200464 |      1200464 |      1200464 |      1200464 |xxxxxxxxxxxxx |xxxxxxxxxxxxx |xxxxxxxxxxxxx |      2521330 |      2521330 |      2521330 |      2521330 |xxxxxxxxxxxxx |xxxxxxxxxxxxx |xxxxxxxxxxxxx |      5322070 |      5322070 |      5322070 |      5322070 |xxxxxxxxxxxxx |xxxxxxxxxxxxx |xxxxxxxxxxxxx |     11133199 |     11133199 |     11133199 |     11133199 |xxxxxxxxxxxxx |xxxxxxxxxxxxx |xxxxxxxxxxxxx |     23379073 |     23379073 |     23379073 |     23379073 |xxxxxxxxxxxxx |xxxxxxxxxxxxx |xxxxxxxxxxxxx |     48719468 |     48719468 |     48719468 |     48719468 |xxxxxxxxxxxxx |xxxxxxxxxxxxx |xxxxxxxxxxxxx |    101900039 |    101900039 |    101900039 |    101900039 |xxxxxxxxxxxxx |xxxxxxxxxxxxx |xxxxxxxxxxxxx |    211672307 |    211672307 |    211672307 |    211672307 |
[...]
bpred_2lev.retstack_pops             xxxxxxxxxxxxx |xxxxxxxxxxxxx |xxxxxxxxxxxxx |         8572 |         8572 |         8572 |         8572 |xxxxxxxxxxxxx |xxxxxxxxxxxxx |xxxxxxxxxxxxx |        16770 |        16770 |        16770 |        16770 |xxxxxxxxxxxxx |xxxxxxxxxxxxx |xxxxxxxxxxxxx |        33160 |        33160 |        33160 |        33160 |xxxxxxxxxxxxx |xxxxxxxxxxxxx |xxxxxxxxxxxxx |        65946 |        65946 |        65946 |        65946 |xxxxxxxxxxxxx |xxxxxxxxxxxxx |xxxxxxxxxxxxx |       131512 |       131512 |       131512 |       131512 |xxxxxxxxxxxxx |xxxxxxxxxxxxx |xxxxxxxxxxxxx |       262650 |       262650 |       262650 |       262650 |xxxxxxxxxxxxx |xxxxxxxxxxxxx |xxxxxxxxxxxxx |       524920 |       524920 |       524920 |       524920 |xxxxxxxxxxxxx |xxxxxxxxxxxxx |xxxxxxxxxxxxx |      1049470 |      1049470 |      1049470 |      1049470 |xxxxxxxxxxxxx |xxxxxxxxxxxxx |xxxxxxxxxxxxx |      2098558 |      2098558 |      2098558 |      2098558 |xxxxxxxxxxxxx |xxxxxxxxxxxxx |xxxxxxxxxxxxx |      4196740 |      4196740 |      4196740 |      4196740 |xxxxxxxxxxxxx |xxxxxxxxxxxxx |xxxxxxxxxxxxx |      8393098 |      8393098 |      8393098 |      8393098 |
bpred_2lev.used_ras.PP               xxxxxxxxxxxxx |xxxxxxxxxxxxx |xxxxxxxxxxxxx |         8572 |         8572 |         8572 |         8572 |xxxxxxxxxxxxx |xxxxxxxxxxxxx |xxxxxxxxxxxxx |        16770 |        16770 |        16770 |        16770 |xxxxxxxxxxxxx |xxxxxxxxxxxxx |xxxxxxxxxxxxx |        33160 |        33160 |        33160 |        33160 |xxxxxxxxxxxxx |xxxxxxxxxxxxx |xxxxxxxxxxxxx |        65946 |        65946 |        65946 |        65946 |xxxxxxxxxxxxx |xxxxxxxxxxxxx |xxxxxxxxxxxxx |       131512 |       131512 |       131512 |       131512 |xxxxxxxxxxxxx |xxxxxxxxxxxxx |xxxxxxxxxxxxx |       262650 |       262650 |       262650 |       262650 |xxxxxxxxxxxxx |xxxxxxxxxxxxx |xxxxxxxxxxxxx |       524920 |       524920 |       524920 |       524920 |xxxxxxxxxxxxx |xxxxxxxxxxxxx |xxxxxxxxxxxxx |      1049470 |      1049470 |      1049470 |      1049470 |xxxxxxxxxxxxx |xxxxxxxxxxxxx |xxxxxxxxxxxxx |      2098558 |      2098558 |      2098558 |      2098558 |xxxxxxxxxxxxx |xxxxxxxxxxxxx |xxxxxxxxxxxxx |      4196740 |      4196740 |      4196740 |      4196740 |xxxxxxxxxxxxx |xxxxxxxxxxxxx |xxxxxxxxxxxxx |      8393098 |      8393098 |      8393098 |      8393098 |
bpred_2lev.ras_hits.PP               xxxxxxxxxxxxx |xxxxxxxxxxxxx |xxxxxxxxxxxxx |         8571 |         8571 |         8571 |         8571 |xxxxxxxxxxxxx |xxxxxxxxxxxxx |xxxxxxxxxxxxx |        16769 |        16769 |        16769 |        16769 |xxxxxxxxxxxxx |xxxxxxxxxxxxx |xxxxxxxxxxxxx |        33159 |        33159 |        33159 |        33159 |xxxxxxxxxxxxx |xxxxxxxxxxxxx |xxxxxxxxxxxxx |        65945 |        65945 |        65945 |        65945 |xxxxxxxxxxxxx |xxxxxxxxxxxxx |xxxxxxxxxxxxx |       131511 |       131511 |       131511 |       131511 |xxxxxxxxxxxxx |xxxxxxxxxxxxx |xxxxxxxxxxxxx |       262649 |       262649 |       262649 |       262649 |xxxxxxxxxxxxx |xxxxxxxxxxxxx |xxxxxxxxxxxxx |       524919 |       524919 |       524919 |       524919 |xxxxxxxxxxxxx |xxxxxxxxxxxxx |xxxxxxxxxxxxx |      1049470 |      1049470 |      1049470 |      1049470 |xxxxxxxxxxxxx |xxxxxxxxxxxxx |xxxxxxxxxxxxx |      2098558 |      2098558 |      2098558 |      2098558 |xxxxxxxxxxxxx |xxxxxxxxxxxxx |xxxxxxxxxxxxx |      4196740 |      4196740 |      4196740 |      4196740 |xxxxxxxxxxxxx |xxxxxxxxxxxxx |xxxxxxxxxxxxx |      8393098 |      8393098 |      8393098 |      8393098 |
bpred_2lev.ras_rate.PP               xxxxxxxxxxxxx |xxxxxxxxxxxxx |xxxxxxxxxxxxx |       0.9999 |       0.9999 |       0.9999 |       0.9999 |xxxxxxxxxxxxx |xxxxxxxxxxxxx |xxxxxxxxxxxxx |       0.9999 |       0.9999 |       0.9999 |       0.9999 |xxxxxxxxxxxxx |xxxxxxxxxxxxx |xxxxxxxxxxxxx |       1.0000 |       1.0000 |       1.0000 |       1.0000 |xxxxxxxxxxxxx |xxxxxxxxxxxxx |xxxxxxxxxxxxx |       1.0000 |       1.0000 |       1.0000 |       1.0000 |xxxxxxxxxxxxx |xxxxxxxxxxxxx |xxxxxxxxxxxxx |       1.0000 |       1.0000 |       1.0000 |       1.0000 |xxxxxxxxxxxxx |xxxxxxxxxxxxx |xxxxxxxxxxxxx |       1.0000 |       1.0000 |       1.0000 |       1.0000 |xxxxxxxxxxxxx |xxxxxxxxxxxxx |xxxxxxxxxxxxx |       1.0000 |       1.0000 |       1.0000 |       1.0000 |xxxxxxxxxxxxx |xxxxxxxxxxxxx |xxxxxxxxxxxxx |       1.0000 |       1.0000 |       1.0000 |       1.0000 |xxxxxxxxxxxxx |xxxxxxxxxxxxx |xxxxxxxxxxxxx |       1.0000 |       1.0000 |       1.0000 |       1.0000 |xxxxxxxxxxxxx |xxxxxxxxxxxxx |xxxxxxxxxxxxx |       1.0000 |       1.0000 |       1.0000 |       1.0000 |xxxxxxxxxxxxx |xxxxxxxxxxxxx |xxxxxxxxxxxxx |       1.0000 |       1.0000 |       1.0000 |       1.0000 |

Command list: 
	sslittle-na-sstrix-gcc -Wall -O3 -funroll-loops -finline-functions  -DRANDOM_SIZE=4096 -DSEED=0 -DSORT=double_tiled_mergesort double_tiled_mergesort1065094074.c simpleMain.c -o double_tiled_mergesort1930426195
	sim-cache -cache:dl1 dl1:256:32:1:l -cache:dl2 dl2:131072:32:1:l -cache:il1 il1:256:32:1:l -cache:il2 dl2 double_tiled_mergesort1930426195
	sim-cache -cache:dl1 dl1:256:32:1:l -cache:dl2 dl2:65536:32:1:l -cache:il1 il1:256:32:1:l -cache:il2 dl2 double_tiled_mergesort1930426195
	sim-cache -cache:dl1 dl1:1:32:256:l -cache:dl2 dl2:1:32:131072:l -cache:il1 il1:1:32:256:l -cache:il2 dl2 double_tiled_mergesort1930426195
	sim-cache -cache:dl1 dl1:1:32:256:l -cache:dl2 dl2:1:32:65536:l -cache:il1 il1:1:32:256:l -cache:il2 dl2 double_tiled_mergesort1930426195
	sim-bpred -bpred bimod -bpred:bimod 512 double_tiled_mergesort1930426195
	sim-bpred -bpred bimod -bpred:bimod 1024 double_tiled_mergesort1930426195
	sim-bpred -bpred bimod -bpred:bimod 2048 double_tiled_mergesort1930426195
	sim-bpred -bpred 2lev -bpred:2lev 1 512 10 1 double_tiled_mergesort1930426195
	sim-bpred -bpred 2lev -bpred:2lev 1 1024 10 1 double_tiled_mergesort1930426195
	sim-bpred -bpred 2lev -bpred:2lev 1 2048 10 1 double_tiled_mergesort1930426195
	sim-bpred -bpred 2lev -bpred:2lev 1 4096 10 1 double_tiled_mergesort1930426195
	sslittle-na-sstrix-gcc -Wall -O3 -funroll-loops -finline-functions  -DRANDOM_SIZE=8192 -DSEED=0 -DSORT=double_tiled_mergesort double_tiled_mergesort1065094074.c simpleMain.c -o double_tiled_mergesort1930426195
	sim-cache -cache:dl1 dl1:256:32:1:l -cache:dl2 dl2:131072:32:1:l -cache:il1 il1:256:32:1:l -cache:il2 dl2 double_tiled_mergesort1930426195
	sim-cache -cache:dl1 dl1:256:32:1:l -cache:dl2 dl2:65536:32:1:l -cache:il1 il1:256:32:1:l -cache:il2 dl2 double_tiled_mergesort1930426195
	sim-cache -cache:dl1 dl1:1:32:256:l -cache:dl2 dl2:1:32:131072:l -cache:il1 il1:1:32:256:l -cache:il2 dl2 double_tiled_mergesort1930426195
	sim-cache -cache:dl1 dl1:1:32:256:l -cache:dl2 dl2:1:32:65536:l -cache:il1 il1:1:32:256:l -cache:il2 dl2 double_tiled_mergesort1930426195
	sim-bpred -bpred bimod -bpred:bimod 512 double_tiled_mergesort1930426195
	sim-bpred -bpred bimod -bpred:bimod 1024 double_tiled_mergesort1930426195
	sim-bpred -bpred bimod -bpred:bimod 2048 double_tiled_mergesort1930426195
	sim-bpred -bpred 2lev -bpred:2lev 1 512 10 1 double_tiled_mergesort1930426195
	sim-bpred -bpred 2lev -bpred:2lev 1 1024 10 1 double_tiled_mergesort1930426195
	sim-bpred -bpred 2lev -bpred:2lev 1 2048 10 1 double_tiled_mergesort1930426195
	sim-bpred -bpred 2lev -bpred:2lev 1 4096 10 1 double_tiled_mergesort1930426195
	sslittle-na-sstrix-gcc -Wall -O3 -funroll-loops -finline-functions  -DRANDOM_SIZE=16384 -DSEED=0 -DSORT=double_tiled_mergesort double_tiled_mergesort1065094074.c simpleMain.c -o double_tiled_mergesort1930426195
	sim-cache -cache:dl1 dl1:256:32:1:l -cache:dl2 dl2:131072:32:1:l -cache:il1 il1:256:32:1:l -cache:il2 dl2 double_tiled_mergesort1930426195
	sim-cache -cache:dl1 dl1:256:32:1:l -cache:dl2 dl2:65536:32:1:l -cache:il1 il1:256:32:1:l -cache:il2 dl2 double_tiled_mergesort1930426195
	sim-cache -cache:dl1 dl1:1:32:256:l -cache:dl2 dl2:1:32:131072:l -cache:il1 il1:1:32:256:l -cache:il2 dl2 double_tiled_mergesort1930426195
	sim-cache -cache:dl1 dl1:1:32:256:l -cache:dl2 dl2:1:32:65536:l -cache:il1 il1:1:32:256:l -cache:il2 dl2 double_tiled_mergesort1930426195
	sim-bpred -bpred bimod -bpred:bimod 512 double_tiled_mergesort1930426195
	sim-bpred -bpred bimod -bpred:bimod 1024 double_tiled_mergesort1930426195
	sim-bpred -bpred bimod -bpred:bimod 2048 double_tiled_mergesort1930426195
	sim-bpred -bpred 2lev -bpred:2lev 1 512 10 1 double_tiled_mergesort1930426195
	sim-bpred -bpred 2lev -bpred:2lev 1 1024 10 1 double_tiled_mergesort1930426195
	sim-bpred -bpred 2lev -bpred:2lev 1 2048 10 1 double_tiled_mergesort1930426195
	sim-bpred -bpred 2lev -bpred:2lev 1 4096 10 1 double_tiled_mergesort1930426195
	sslittle-na-sstrix-gcc -Wall -O3 -funroll-loops -finline-functions  -DRANDOM_SIZE=32768 -DSEED=0 -DSORT=double_tiled_mergesort double_tiled_mergesort1065094074.c simpleMain.c -o double_tiled_mergesort1930426195
	sim-cache -cache:dl1 dl1:256:32:1:l -cache:dl2 dl2:131072:32:1:l -cache:il1 il1:256:32:1:l -cache:il2 dl2 double_tiled_mergesort1930426195
	sim-cache -cache:dl1 dl1:256:32:1:l -cache:dl2 dl2:65536:32:1:l -cache:il1 il1:256:32:1:l -cache:il2 dl2 double_tiled_mergesort1930426195
	sim-cache -cache:dl1 dl1:1:32:256:l -cache:dl2 dl2:1:32:131072:l -cache:il1 il1:1:32:256:l -cache:il2 dl2 double_tiled_mergesort1930426195
	sim-cache -cache:dl1 dl1:1:32:256:l -cache:dl2 dl2:1:32:65536:l -cache:il1 il1:1:32:256:l -cache:il2 dl2 double_tiled_mergesort1930426195
	sim-bpred -bpred bimod -bpred:bimod 512 double_tiled_mergesort1930426195
	sim-bpred -bpred bimod -bpred:bimod 1024 double_tiled_mergesort1930426195
	sim-bpred -bpred bimod -bpred:bimod 2048 double_tiled_mergesort1930426195
	sim-bpred -bpred 2lev -bpred:2lev 1 512 10 1 double_tiled_mergesort1930426195
	sim-bpred -bpred 2lev -bpred:2lev 1 1024 10 1 double_tiled_mergesort1930426195
	sim-bpred -bpred 2lev -bpred:2lev 1 2048 10 1 double_tiled_mergesort1930426195
	sim-bpred -bpred 2lev -bpred:2lev 1 4096 10 1 double_tiled_mergesort1930426195
	sslittle-na-sstrix-gcc -Wall -O3 -funroll-loops -finline-functions  -DRANDOM_SIZE=65536 -DSEED=0 -DSORT=double_tiled_mergesort double_tiled_mergesort1065094074.c simpleMain.c -o double_tiled_mergesort1930426195
	sim-cache -cache:dl1 dl1:256:32:1:l -cache:dl2 dl2:131072:32:1:l -cache:il1 il1:256:32:1:l -cache:il2 dl2 double_tiled_mergesort1930426195
	sim-cache -cache:dl1 dl1:256:32:1:l -cache:dl2 dl2:65536:32:1:l -cache:il1 il1:256:32:1:l -cache:il2 dl2 double_tiled_mergesort1930426195
	sim-cache -cache:dl1 dl1:1:32:256:l -cache:dl2 dl2:1:32:131072:l -cache:il1 il1:1:32:256:l -cache:il2 dl2 double_tiled_mergesort1930426195
	sim-cache -cache:dl1 dl1:1:32:256:l -cache:dl2 dl2:1:32:65536:l -cache:il1 il1:1:32:256:l -cache:il2 dl2 double_tiled_mergesort1930426195
	sim-bpred -bpred bimod -bpred:bimod 512 double_tiled_mergesort1930426195
	sim-bpred -bpred bimod -bpred:bimod 1024 double_tiled_mergesort1930426195
	sim-bpred -bpred bimod -bpred:bimod 2048 double_tiled_mergesort1930426195
	sim-bpred -bpred 2lev -bpred:2lev 1 512 10 1 double_tiled_mergesort1930426195
	sim-bpred -bpred 2lev -bpred:2lev 1 1024 10 1 double_tiled_mergesort1930426195
	sim-bpred -bpred 2lev -bpred:2lev 1 2048 10 1 double_tiled_mergesort1930426195
	sim-bpred -bpred 2lev -bpred:2lev 1 4096 10 1 double_tiled_mergesort1930426195
	sslittle-na-sstrix-gcc -Wall -O3 -funroll-loops -finline-functions  -DRANDOM_SIZE=131072 -DSEED=0 -DSORT=double_tiled_mergesort double_tiled_mergesort1065094074.c simpleMain.c -o double_tiled_mergesort1930426195
	sim-cache -cache:dl1 dl1:256:32:1:l -cache:dl2 dl2:131072:32:1:l -cache:il1 il1:256:32:1:l -cache:il2 dl2 double_tiled_mergesort1930426195
	sim-cache -cache:dl1 dl1:256:32:1:l -cache:dl2 dl2:65536:32:1:l -cache:il1 il1:256:32:1:l -cache:il2 dl2 double_tiled_mergesort1930426195
	sim-cache -cache:dl1 dl1:1:32:256:l -cache:dl2 dl2:1:32:131072:l -cache:il1 il1:1:32:256:l -cache:il2 dl2 double_tiled_mergesort1930426195
	sim-cache -cache:dl1 dl1:1:32:256:l -cache:dl2 dl2:1:32:65536:l -cache:il1 il1:1:32:256:l -cache:il2 dl2 double_tiled_mergesort1930426195
	sim-bpred -bpred bimod -bpred:bimod 512 double_tiled_mergesort1930426195
	sim-bpred -bpred bimod -bpred:bimod 1024 double_tiled_mergesort1930426195
	sim-bpred -bpred bimod -bpred:bimod 2048 double_tiled_mergesort1930426195
	sim-bpred -bpred 2lev -bpred:2lev 1 512 10 1 double_tiled_mergesort1930426195
	sim-bpred -bpred 2lev -bpred:2lev 1 1024 10 1 double_tiled_mergesort1930426195
	sim-bpred -bpred 2lev -bpred:2lev 1 2048 10 1 double_tiled_mergesort1930426195
	sim-bpred -bpred 2lev -bpred:2lev 1 4096 10 1 double_tiled_mergesort1930426195
	sslittle-na-sstrix-gcc -Wall -O3 -funroll-loops -finline-functions  -DRANDOM_SIZE=262144 -DSEED=0 -DSORT=double_tiled_mergesort double_tiled_mergesort1065094074.c simpleMain.c -o double_tiled_mergesort1930426195
	sim-cache -cache:dl1 dl1:256:32:1:l -cache:dl2 dl2:131072:32:1:l -cache:il1 il1:256:32:1:l -cache:il2 dl2 double_tiled_mergesort1930426195
	sim-cache -cache:dl1 dl1:256:32:1:l -cache:dl2 dl2:65536:32:1:l -cache:il1 il1:256:32:1:l -cache:il2 dl2 double_tiled_mergesort1930426195
	sim-cache -cache:dl1 dl1:1:32:256:l -cache:dl2 dl2:1:32:131072:l -cache:il1 il1:1:32:256:l -cache:il2 dl2 double_tiled_mergesort1930426195
	sim-cache -cache:dl1 dl1:1:32:256:l -cache:dl2 dl2:1:32:65536:l -cache:il1 il1:1:32:256:l -cache:il2 dl2 double_tiled_mergesort1930426195
	sim-bpred -bpred bimod -bpred:bimod 512 double_tiled_mergesort1930426195
	sim-bpred -bpred bimod -bpred:bimod 1024 double_tiled_mergesort1930426195
	sim-bpred -bpred bimod -bpred:bimod 2048 double_tiled_mergesort1930426195
	sim-bpred -bpred 2lev -bpred:2lev 1 512 10 1 double_tiled_mergesort1930426195
	sim-bpred -bpred 2lev -bpred:2lev 1 1024 10 1 double_tiled_mergesort1930426195
	sim-bpred -bpred 2lev -bpred:2lev 1 2048 10 1 double_tiled_mergesort1930426195
	sim-bpred -bpred 2lev -bpred:2lev 1 4096 10 1 double_tiled_mergesort1930426195
	sslittle-na-sstrix-gcc -Wall -O3 -funroll-loops -finline-functions  -DRANDOM_SIZE=524288 -DSEED=0 -DSORT=double_tiled_mergesort double_tiled_mergesort1065094074.c simpleMain.c -o double_tiled_mergesort1930426195
	sim-cache -cache:dl1 dl1:256:32:1:l -cache:dl2 dl2:131072:32:1:l -cache:il1 il1:256:32:1:l -cache:il2 dl2 double_tiled_mergesort1930426195
	sim-cache -cache:dl1 dl1:256:32:1:l -cache:dl2 dl2:65536:32:1:l -cache:il1 il1:256:32:1:l -cache:il2 dl2 double_tiled_mergesort1930426195
	sim-cache -cache:dl1 dl1:1:32:256:l -cache:dl2 dl2:1:32:131072:l -cache:il1 il1:1:32:256:l -cache:il2 dl2 double_tiled_mergesort1930426195
	sim-cache -cache:dl1 dl1:1:32:256:l -cache:dl2 dl2:1:32:65536:l -cache:il1 il1:1:32:256:l -cache:il2 dl2 double_tiled_mergesort1930426195
	sim-bpred -bpred bimod -bpred:bimod 512 double_tiled_mergesort1930426195
	sim-bpred -bpred bimod -bpred:bimod 1024 double_tiled_mergesort1930426195
	sim-bpred -bpred bimod -bpred:bimod 2048 double_tiled_mergesort1930426195
	sim-bpred -bpred 2lev -bpred:2lev 1 512 10 1 double_tiled_mergesort1930426195
	sim-bpred -bpred 2lev -bpred:2lev 1 1024 10 1 double_tiled_mergesort1930426195
	sim-bpred -bpred 2lev -bpred:2lev 1 2048 10 1 double_tiled_mergesort1930426195
	sim-bpred -bpred 2lev -bpred:2lev 1 4096 10 1 double_tiled_mergesort1930426195
	sslittle-na-sstrix-gcc -Wall -O3 -funroll-loops -finline-functions  -DRANDOM_SIZE=1048576 -DSEED=0 -DSORT=double_tiled_mergesort double_tiled_mergesort1065094074.c simpleMain.c -o double_tiled_mergesort1930426195
	sim-cache -cache:dl1 dl1:256:32:1:l -cache:dl2 dl2:131072:32:1:l -cache:il1 il1:256:32:1:l -cache:il2 dl2 double_tiled_mergesort1930426195
	sim-cache -cache:dl1 dl1:256:32:1:l -cache:dl2 dl2:65536:32:1:l -cache:il1 il1:256:32:1:l -cache:il2 dl2 double_tiled_mergesort1930426195
	sim-cache -cache:dl1 dl1:1:32:256:l -cache:dl2 dl2:1:32:131072:l -cache:il1 il1:1:32:256:l -cache:il2 dl2 double_tiled_mergesort1930426195
	sim-cache -cache:dl1 dl1:1:32:256:l -cache:dl2 dl2:1:32:65536:l -cache:il1 il1:1:32:256:l -cache:il2 dl2 double_tiled_mergesort1930426195
	sim-bpred -bpred bimod -bpred:bimod 512 double_tiled_mergesort1930426195
	sim-bpred -bpred bimod -bpred:bimod 1024 double_tiled_mergesort1930426195
	sim-bpred -bpred bimod -bpred:bimod 2048 double_tiled_mergesort1930426195
	sim-bpred -bpred 2lev -bpred:2lev 1 512 10 1 double_tiled_mergesort1930426195
	sim-bpred -bpred 2lev -bpred:2lev 1 1024 10 1 double_tiled_mergesort1930426195
	sim-bpred -bpred 2lev -bpred:2lev 1 2048 10 1 double_tiled_mergesort1930426195
	sim-bpred -bpred 2lev -bpred:2lev 1 4096 10 1 double_tiled_mergesort1930426195
	sslittle-na-sstrix-gcc -Wall -O3 -funroll-loops -finline-functions  -DRANDOM_SIZE=2097152 -DSEED=0 -DSORT=double_tiled_mergesort double_tiled_mergesort1065094074.c simpleMain.c -o double_tiled_mergesort1930426195
	sim-cache -cache:dl1 dl1:256:32:1:l -cache:dl2 dl2:131072:32:1:l -cache:il1 il1:256:32:1:l -cache:il2 dl2 double_tiled_mergesort1930426195
	sim-cache -cache:dl1 dl1:256:32:1:l -cache:dl2 dl2:65536:32:1:l -cache:il1 il1:256:32:1:l -cache:il2 dl2 double_tiled_mergesort1930426195
	sim-cache -cache:dl1 dl1:1:32:256:l -cache:dl2 dl2:1:32:131072:l -cache:il1 il1:1:32:256:l -cache:il2 dl2 double_tiled_mergesort1930426195
	sim-cache -cache:dl1 dl1:1:32:256:l -cache:dl2 dl2:1:32:65536:l -cache:il1 il1:1:32:256:l -cache:il2 dl2 double_tiled_mergesort1930426195
	sim-bpred -bpred bimod -bpred:bimod 512 double_tiled_mergesort1930426195
	sim-bpred -bpred bimod -bpred:bimod 1024 double_tiled_mergesort1930426195
	sim-bpred -bpred bimod -bpred:bimod 2048 double_tiled_mergesort1930426195
	sim-bpred -bpred 2lev -bpred:2lev 1 512 10 1 double_tiled_mergesort1930426195
	sim-bpred -bpred 2lev -bpred:2lev 1 1024 10 1 double_tiled_mergesort1930426195
	sim-bpred -bpred 2lev -bpred:2lev 1 2048 10 1 double_tiled_mergesort1930426195
	sim-bpred -bpred 2lev -bpred:2lev 1 4096 10 1 double_tiled_mergesort1930426195
	sslittle-na-sstrix-gcc -Wall -O3 -funroll-loops -finline-functions  -DRANDOM_SIZE=4194304 -DSEED=0 -DSORT=double_tiled_mergesort double_tiled_mergesort1065094074.c simpleMain.c -o double_tiled_mergesort1930426195
	sim-cache -cache:dl1 dl1:256:32:1:l -cache:dl2 dl2:131072:32:1:l -cache:il1 il1:256:32:1:l -cache:il2 dl2 double_tiled_mergesort1930426195
	sim-cache -cache:dl1 dl1:256:32:1:l -cache:dl2 dl2:65536:32:1:l -cache:il1 il1:256:32:1:l -cache:il2 dl2 double_tiled_mergesort1930426195
	sim-cache -cache:dl1 dl1:1:32:256:l -cache:dl2 dl2:1:32:131072:l -cache:il1 il1:1:32:256:l -cache:il2 dl2 double_tiled_mergesort1930426195
	sim-cache -cache:dl1 dl1:1:32:256:l -cache:dl2 dl2:1:32:65536:l -cache:il1 il1:1:32:256:l -cache:il2 dl2 double_tiled_mergesort1930426195
	sim-bpred -bpred bimod -bpred:bimod 512 double_tiled_mergesort1930426195
	sim-bpred -bpred bimod -bpred:bimod 1024 double_tiled_mergesort1930426195
	sim-bpred -bpred bimod -bpred:bimod 2048 double_tiled_mergesort1930426195
	sim-bpred -bpred 2lev -bpred:2lev 1 512 10 1 double_tiled_mergesort1930426195
	sim-bpred -bpred 2lev -bpred:2lev 1 1024 10 1 double_tiled_mergesort1930426195
	sim-bpred -bpred 2lev -bpred:2lev 1 2048 10 1 double_tiled_mergesort1930426195
	sim-bpred -bpred 2lev -bpred:2lev 1 4096 10 1 double_tiled_mergesort1930426195
