Mon Mar 29 14:28:26 2004
Run as: "./simple -c final double_tiled_mergesort"
-------------------------------------------------------------------------------------------------
sim-cache                                     4096 |         4096 |         4096 |         4096 |         8192 |         8192 |         8192 |         8192 |        16384 |        16384 |        16384 |        16384 |        32768 |        32768 |        32768 |        32768 |        65536 |        65536 |        65536 |        65536 |       131072 |       131072 |       131072 |       131072 |       262144 |       262144 |       262144 |       262144 |       524288 |       524288 |       524288 |       524288 |      1048576 |      1048576 |      1048576 |      1048576 |      2097152 |      2097152 |      2097152 |      2097152 |      4194304 |      4194304 |      4194304 |      4194304 |
-cache:dl1 dl1:256:32:1:l -cache:dl2 dl2:131072:32:1:l -cache:il1 il1:256:32:1:l -cache:il2 dl2
-cache:dl1 dl1:256:32:1:l -cache:dl2 dl2:65536:32:1:l -cache:il1 il1:256:32:1:l -cache:il2 dl2
-cache:dl1 dl1:1:32:256:l -cache:dl2 dl2:1:32:131072:l -cache:il1 il1:1:32:256:l -cache:il2 dl2
-cache:dl1 dl1:1:32:256:l -cache:dl2 dl2:1:32:65536:l -cache:il1 il1:1:32:256:l -cache:il2 dl2
-------------------------------------------------------------------------------------------------
sim_num_insn                                920945 |       920945 |       920945 |       920945 |      1866589 |      1866589 |      1866589 |      1866589 |      4175975 |      4175975 |      4175975 |      4175975 |      8492180 |      8492180 |      8492180 |      8492180 |     18816348 |     18816348 |     18816348 |     18816348 |     38279663 |     38279663 |     38279663 |     38279663 |     83912240 |     83912240 |     83912240 |     83912240 |    170357518 |    170357518 |    170357518 |    170357518 |    370173673 |    370173673 |    370173673 |    370173673 |    750532672 |    750532672 |    750532672 |    750532672 |   1619053989 |   1619053989 |   1619053989 |   1619053989 |
sim_num_refs                                270283 |       270283 |       270283 |       270283 |       551005 |       551005 |       551005 |       551005 |      1205016 |      1205016 |      1205016 |      1205016 |      2473806 |      2473806 |      2473806 |      2473806 |      5385648 |      5385648 |      5385648 |      5385648 |     11057854 |     11057854 |     11057854 |     11057854 |     23886795 |     23886795 |     23886795 |     23886795 |     48928934 |     48928934 |     48928934 |     48928934 |    104958595 |    104958595 |    104958595 |    104958595 |    214534002 |    214534002 |    214534002 |    214534002 |    457537524 |    457537524 |    457537524 |    457537524 |
sim_elapsed_time                                 1 |            1 |           10 |            5 |            1 |            1 |           15 |            8 |            1 |            1 |           26 |           13 |            2 |            2 |           46 |           23 |            5 |            5 |           87 |           42 |            9 |           10 |          160 |           72 |           22 |           21 |          280 |          104 |           43 |           44 |          370 |          129 |           95 |           99 |          425 |          184 |          215 |          197 |          546 |          293 |          416 |          415 |          779 |          541 |
sim_inst_rate                          920945.0000 |  920945.0000 |   92094.5000 |  184189.0000 | 1866589.0000 | 1866589.0000 |  124439.2667 |  233323.6250 | 4175975.0000 | 4175975.0000 |  160614.4231 |  321228.8462 | 4246090.0000 | 4246090.0000 |  184612.6087 |  369225.2174 | 3763269.6000 | 3763269.6000 |  216279.8621 |  448008.2857 | 4253295.8889 | 3827966.3000 |  239247.8937 |  531661.9861 | 3814192.7273 | 3995820.9524 |  299686.5714 |  806848.4615 | 3961802.7442 | 3871761.7727 |  460425.7243 | 1320600.9147 | 3896564.9789 | 3739128.0101 |  870996.8776 | 2011813.4402 | 3490849.6372 | 3809810.5178 | 1374601.9634 | 2561544.9556 | 3891956.7043 | 3901334.9133 | 2078374.8254 | 2992706.0795 |
il1.accesses                                920945 |       920945 |       920945 |       920945 |      1866589 |      1866589 |      1866589 |      1866589 |      4175975 |      4175975 |      4175975 |      4175975 |      8492180 |      8492180 |      8492180 |      8492180 |     18816348 |     18816348 |     18816348 |     18816348 |     38279663 |     38279663 |     38279663 |     38279663 |     83912240 |     83912240 |     83912240 |     83912240 |    170357518 |    170357518 |    170357518 |    170357518 |    370173673 |    370173673 |    370173673 |    370173673 |    750532672 |    750532672 |    750532672 |    750532672 |   1619053989 |   1619053989 |   1619053989 |   1619053989 |
il1.hits                                    920293 |       920293 |       920317 |       920317 |      1865895 |      1865895 |      1865934 |      1865934 |      4175277 |      4175277 |      4175345 |      4175345 |      8491397 |      8491397 |      8491532 |      8491532 |     18815525 |     18815525 |     18815716 |     18815716 |     38278543 |     38278543 |     38279015 |     38279015 |     83910883 |     83910883 |     83911679 |     83911679 |    170355365 |    170355365 |    170356803 |    170356803 |    370170104 |    370170104 |    370172968 |    370172968 |    750526229 |    750526229 |    750531951 |    750531951 |   1619041852 |   1619041852 |   1619053284 |   1619053284 |
il1.misses                                     652 |          652 |          628 |          628 |          694 |          694 |          655 |          655 |          698 |          698 |          630 |          630 |          783 |          783 |          648 |          648 |          823 |          823 |          632 |          632 |         1120 |         1120 |          648 |          648 |         1357 |         1357 |          561 |          561 |         2153 |         2153 |          715 |          715 |         3569 |         3569 |          705 |          705 |         6443 |         6443 |          721 |          721 |        12137 |        12137 |          705 |          705 |
il1.replacements                               398 |          398 |          372 |          372 |          440 |          440 |          399 |          399 |          447 |          447 |          374 |          374 |          531 |          531 |          392 |          392 |          574 |          574 |          376 |          376 |          868 |          868 |          392 |          392 |         1109 |         1109 |          305 |          305 |         1901 |         1901 |          459 |          459 |         3321 |         3321 |          449 |          449 |         6191 |         6191 |          465 |          465 |        11889 |        11889 |          449 |          449 |
il1.writebacks                                   0 |            0 |            0 |            0 |            0 |            0 |            0 |            0 |            0 |            0 |            0 |            0 |            0 |            0 |            0 |            0 |            0 |            0 |            0 |            0 |            0 |            0 |            0 |            0 |            0 |            0 |            0 |            0 |            0 |            0 |            0 |            0 |            0 |            0 |            0 |            0 |            0 |            0 |            0 |            0 |            0 |            0 |            0 |            0 |
il1.invalidations                                0 |            0 |            0 |            0 |            0 |            0 |            0 |            0 |            0 |            0 |            0 |            0 |            0 |            0 |            0 |            0 |            0 |            0 |            0 |            0 |            0 |            0 |            0 |            0 |            0 |            0 |            0 |            0 |            0 |            0 |            0 |            0 |            0 |            0 |            0 |            0 |            0 |            0 |            0 |            0 |            0 |            0 |            0 |            0 |
il1.miss_rate                               0.0007 |       0.0007 |       0.0007 |       0.0007 |       0.0004 |       0.0004 |       0.0004 |       0.0004 |       0.0002 |       0.0002 |       0.0002 |       0.0002 |       0.0001 |       0.0001 |       0.0001 |       0.0001 |       0.0000 |       0.0000 |       0.0000 |       0.0000 |       0.0000 |       0.0000 |       0.0000 |       0.0000 |       0.0000 |       0.0000 |       0.0000 |       0.0000 |       0.0000 |       0.0000 |       0.0000 |       0.0000 |       0.0000 |       0.0000 |       0.0000 |       0.0000 |       0.0000 |       0.0000 |       0.0000 |       0.0000 |       0.0000 |       0.0000 |       0.0000 |       0.0000 |
il1.repl_rate                               0.0004 |       0.0004 |       0.0004 |       0.0004 |       0.0002 |       0.0002 |       0.0002 |       0.0002 |       0.0001 |       0.0001 |       0.0001 |       0.0001 |       0.0001 |       0.0001 |       0.0000 |       0.0000 |       0.0000 |       0.0000 |       0.0000 |       0.0000 |       0.0000 |       0.0000 |       0.0000 |       0.0000 |       0.0000 |       0.0000 |       0.0000 |       0.0000 |       0.0000 |       0.0000 |       0.0000 |       0.0000 |       0.0000 |       0.0000 |       0.0000 |       0.0000 |       0.0000 |       0.0000 |       0.0000 |       0.0000 |       0.0000 |       0.0000 |       0.0000 |       0.0000 |
il1.wb_rate                                 0.0000 |       0.0000 |       0.0000 |       0.0000 |       0.0000 |       0.0000 |       0.0000 |       0.0000 |       0.0000 |       0.0000 |       0.0000 |       0.0000 |       0.0000 |       0.0000 |       0.0000 |       0.0000 |       0.0000 |       0.0000 |       0.0000 |       0.0000 |       0.0000 |       0.0000 |       0.0000 |       0.0000 |       0.0000 |       0.0000 |       0.0000 |       0.0000 |       0.0000 |       0.0000 |       0.0000 |       0.0000 |       0.0000 |       0.0000 |       0.0000 |       0.0000 |       0.0000 |       0.0000 |       0.0000 |       0.0000 |       0.0000 |       0.0000 |       0.0000 |       0.0000 |
il1.inv_rate                                0.0000 |       0.0000 |       0.0000 |       0.0000 |       0.0000 |       0.0000 |       0.0000 |       0.0000 |       0.0000 |       0.0000 |       0.0000 |       0.0000 |       0.0000 |       0.0000 |       0.0000 |       0.0000 |       0.0000 |       0.0000 |       0.0000 |       0.0000 |       0.0000 |       0.0000 |       0.0000 |       0.0000 |       0.0000 |       0.0000 |       0.0000 |       0.0000 |       0.0000 |       0.0000 |       0.0000 |       0.0000 |       0.0000 |       0.0000 |       0.0000 |       0.0000 |       0.0000 |       0.0000 |       0.0000 |       0.0000 |       0.0000 |       0.0000 |       0.0000 |       0.0000 |
dl1.accesses                                270353 |       270353 |       270353 |       270353 |       551075 |       551075 |       551075 |       551075 |      1205086 |      1205086 |      1205086 |      1205086 |      2473876 |      2473876 |      2473876 |      2473876 |      5385718 |      5385718 |      5385718 |      5385718 |     11057924 |     11057924 |     11057924 |     11057924 |     23886865 |     23886865 |     23886865 |     23886865 |     48929004 |     48929004 |     48929004 |     48929004 |    104958665 |    104958665 |    104958665 |    104958665 |    214534072 |    214534072 |    214534072 |    214534072 |    457537594 |    457537594 |    457537594 |    457537594 |
dl1.hits                                    255658 |       255658 |       258732 |       258732 |       522495 |       522495 |       528301 |       528301 |      1138375 |      1138375 |      1151787 |      1151787 |      2342188 |      2342188 |      2367770 |      2367770 |      5084705 |      5084705 |      5141131 |      5141131 |     10460088 |     10460088 |     10569341 |     10569341 |     22539469 |     22539469 |     22778822 |     22778822 |     46249342 |     46249342 |     46712744 |     46712744 |     98987003 |     98987003 |    100002412 |    100002412 |    202658012 |    202658012 |    204624610 |    204624610 |    431336658 |    431336658 |    435617983 |    435617983 |
dl1.misses                                   14695 |        14695 |        11621 |        11621 |        28580 |        28580 |        22774 |        22774 |        66711 |        66711 |        53299 |        53299 |       131688 |       131688 |       106106 |       106106 |       301013 |       301013 |       244587 |       244587 |       597836 |       597836 |       488583 |       488583 |      1347396 |      1347396 |      1108043 |      1108043 |      2679662 |      2679662 |      2216260 |      2216260 |      5971662 |      5971662 |      4956253 |      4956253 |     11876060 |     11876060 |      9909462 |      9909462 |     26200936 |     26200936 |     21919611 |     21919611 |
dl1.replacements                             14439 |        14439 |        11365 |        11365 |        28324 |        28324 |        22518 |        22518 |        66455 |        66455 |        53043 |        53043 |       131432 |       131432 |       105850 |       105850 |       300757 |       300757 |       244331 |       244331 |       597580 |       597580 |       488327 |       488327 |      1347140 |      1347140 |      1107787 |      1107787 |      2679406 |      2679406 |      2216004 |      2216004 |      5971406 |      5971406 |      4955997 |      4955997 |     11875804 |     11875804 |      9909206 |      9909206 |     26200680 |     26200680 |     21919355 |     21919355 |
dl1.writebacks                                8442 |         8442 |         6465 |         6465 |        16525 |        16525 |        12615 |        12615 |        37508 |        37508 |        29033 |        29033 |        74176 |        74176 |        57729 |        57729 |       165947 |       165947 |       131593 |       131593 |       330338 |       330338 |       262761 |       262761 |       732462 |       732462 |       590986 |       590986 |      1459312 |      1459312 |      1181969 |      1181969 |      3207223 |      3207223 |      2625937 |      2625937 |      6387367 |      6387367 |      5249687 |      5249687 |     13932666 |     13932666 |     11551382 |     11551382 |
dl1.invalidations                                0 |            0 |            0 |            0 |            0 |            0 |            0 |            0 |            0 |            0 |            0 |            0 |            0 |            0 |            0 |            0 |            0 |            0 |            0 |            0 |            0 |            0 |            0 |            0 |            0 |            0 |            0 |            0 |            0 |            0 |            0 |            0 |            0 |            0 |            0 |            0 |            0 |            0 |            0 |            0 |            0 |            0 |            0 |            0 |
dl1.miss_rate                               0.0544 |       0.0544 |       0.0430 |       0.0430 |       0.0519 |       0.0519 |       0.0413 |       0.0413 |       0.0554 |       0.0554 |       0.0442 |       0.0442 |       0.0532 |       0.0532 |       0.0429 |       0.0429 |       0.0559 |       0.0559 |       0.0454 |       0.0454 |       0.0541 |       0.0541 |       0.0442 |       0.0442 |       0.0564 |       0.0564 |       0.0464 |       0.0464 |       0.0548 |       0.0548 |       0.0453 |       0.0453 |       0.0569 |       0.0569 |       0.0472 |       0.0472 |       0.0554 |       0.0554 |       0.0462 |       0.0462 |       0.0573 |       0.0573 |       0.0479 |       0.0479 |
dl1.repl_rate                               0.0534 |       0.0534 |       0.0420 |       0.0420 |       0.0514 |       0.0514 |       0.0409 |       0.0409 |       0.0551 |       0.0551 |       0.0440 |       0.0440 |       0.0531 |       0.0531 |       0.0428 |       0.0428 |       0.0558 |       0.0558 |       0.0454 |       0.0454 |       0.0540 |       0.0540 |       0.0442 |       0.0442 |       0.0564 |       0.0564 |       0.0464 |       0.0464 |       0.0548 |       0.0548 |       0.0453 |       0.0453 |       0.0569 |       0.0569 |       0.0472 |       0.0472 |       0.0554 |       0.0554 |       0.0462 |       0.0462 |       0.0573 |       0.0573 |       0.0479 |       0.0479 |
dl1.wb_rate                                 0.0312 |       0.0312 |       0.0239 |       0.0239 |       0.0300 |       0.0300 |       0.0229 |       0.0229 |       0.0311 |       0.0311 |       0.0241 |       0.0241 |       0.0300 |       0.0300 |       0.0233 |       0.0233 |       0.0308 |       0.0308 |       0.0244 |       0.0244 |       0.0299 |       0.0299 |       0.0238 |       0.0238 |       0.0307 |       0.0307 |       0.0247 |       0.0247 |       0.0298 |       0.0298 |       0.0242 |       0.0242 |       0.0306 |       0.0306 |       0.0250 |       0.0250 |       0.0298 |       0.0298 |       0.0245 |       0.0245 |       0.0305 |       0.0305 |       0.0252 |       0.0252 |
dl1.inv_rate                                0.0000 |       0.0000 |       0.0000 |       0.0000 |       0.0000 |       0.0000 |       0.0000 |       0.0000 |       0.0000 |       0.0000 |       0.0000 |       0.0000 |       0.0000 |       0.0000 |       0.0000 |       0.0000 |       0.0000 |       0.0000 |       0.0000 |       0.0000 |       0.0000 |       0.0000 |       0.0000 |       0.0000 |       0.0000 |       0.0000 |       0.0000 |       0.0000 |       0.0000 |       0.0000 |       0.0000 |       0.0000 |       0.0000 |       0.0000 |       0.0000 |       0.0000 |       0.0000 |       0.0000 |       0.0000 |       0.0000 |       0.0000 |       0.0000 |       0.0000 |       0.0000 |
dl2.accesses                                 23789 |        23789 |        18714 |        18714 |        45799 |        45799 |        36044 |        36044 |       104917 |       104917 |        82962 |        82962 |       206647 |       206647 |       164483 |       164483 |       467783 |       467783 |       376812 |       376812 |       929294 |       929294 |       751992 |       751992 |      2081215 |      2081215 |      1699590 |      1699590 |      4141127 |      4141127 |      3398944 |      3398944 |      9182454 |      9182454 |      7582895 |      7582895 |     18269870 |     18269870 |     15159870 |     15159870 |     40145739 |     40145739 |     33471698 |     33471698 |
dl2.hits                                     21733 |        21733 |        16707 |        16707 |        42672 |        42672 |        32985 |        32985 |        99776 |        99776 |        77876 |        77876 |       197378 |       197378 |       155284 |       155284 |       450352 |       450352 |       359436 |       359436 |       895449 |       895449 |       718216 |       718216 |      2014702 |      1598671 |      1633121 |      1602471 |      4004725 |      3083569 |      3248055 |      3014303 |      6845435 |      6759068 |      6663521 |      6553843 |     12898432 |     12895732 |     12797853 |     12578880 |     28351136 |     28349652 |     27700270 |     27263228 |
dl2.misses                                    2056 |         2056 |         2007 |         2007 |         3127 |         3127 |         3059 |         3059 |         5141 |         5141 |         5086 |         5086 |         9269 |         9269 |         9199 |         9199 |        17431 |        17431 |        17376 |        17376 |        33845 |        33845 |        33776 |        33776 |        66513 |       482544 |        66469 |        97119 |       136402 |      1057558 |       150889 |       384641 |      2337019 |      2423386 |       919374 |      1029052 |      5371438 |      5374138 |      2362017 |      2580990 |     11794603 |     11796087 |      5771428 |      6208470 |
dl2.replacements                               260 |          260 |            0 |            0 |          304 |          304 |            0 |            0 |          275 |          275 |            0 |            0 |          306 |          306 |            0 |            0 |          276 |          276 |            0 |            0 |          306 |          306 |            0 |            0 |          202 |       447627 |            0 |        31583 |         6399 |       992022 |        19817 |       319105 |      2205947 |      2357850 |       788302 |       963516 |      5240366 |      5308602 |      2230945 |      2515454 |     11663531 |     11730551 |      5640356 |      6142934 |
dl2.writebacks                                 175 |          175 |            0 |            0 |          189 |          189 |            0 |            0 |          188 |          188 |            0 |            0 |          191 |          191 |            0 |            0 |          189 |          189 |            0 |            0 |          192 |          192 |            0 |            0 |          118 |       296255 |            0 |        31236 |         6210 |       667582 |        19311 |       269553 |      1409395 |      1413533 |       591062 |       701201 |      3210169 |      3254100 |      1509335 |      1696553 |      6784501 |      6828754 |      3608026 |      3948801 |
dl2.invalidations                                0 |            0 |            0 |            0 |            0 |            0 |            0 |            0 |            0 |            0 |            0 |            0 |            0 |            0 |            0 |            0 |            0 |            0 |            0 |            0 |            0 |            0 |            0 |            0 |            0 |            0 |            0 |            0 |            0 |            0 |            0 |            0 |            0 |            0 |            0 |            0 |            0 |            0 |            0 |            0 |            0 |            0 |            0 |            0 |
dl2.miss_rate                               0.0864 |       0.0864 |       0.1072 |       0.1072 |       0.0683 |       0.0683 |       0.0849 |       0.0849 |       0.0490 |       0.0490 |       0.0613 |       0.0613 |       0.0449 |       0.0449 |       0.0559 |       0.0559 |       0.0373 |       0.0373 |       0.0461 |       0.0461 |       0.0364 |       0.0364 |       0.0449 |       0.0449 |       0.0320 |       0.2319 |       0.0391 |       0.0571 |       0.0329 |       0.2554 |       0.0444 |       0.1132 |       0.2545 |       0.2639 |       0.1212 |       0.1357 |       0.2940 |       0.2942 |       0.1558 |       0.1703 |       0.2938 |       0.2938 |       0.1724 |       0.1855 |
dl2.repl_rate                               0.0109 |       0.0109 |       0.0000 |       0.0000 |       0.0066 |       0.0066 |       0.0000 |       0.0000 |       0.0026 |       0.0026 |       0.0000 |       0.0000 |       0.0015 |       0.0015 |       0.0000 |       0.0000 |       0.0006 |       0.0006 |       0.0000 |       0.0000 |       0.0003 |       0.0003 |       0.0000 |       0.0000 |       0.0001 |       0.2151 |       0.0000 |       0.0186 |       0.0015 |       0.2396 |       0.0058 |       0.0939 |       0.2402 |       0.2568 |       0.1040 |       0.1271 |       0.2868 |       0.2906 |       0.1472 |       0.1659 |       0.2905 |       0.2922 |       0.1685 |       0.1835 |
dl2.wb_rate                                 0.0074 |       0.0074 |       0.0000 |       0.0000 |       0.0041 |       0.0041 |       0.0000 |       0.0000 |       0.0018 |       0.0018 |       0.0000 |       0.0000 |       0.0009 |       0.0009 |       0.0000 |       0.0000 |       0.0004 |       0.0004 |       0.0000 |       0.0000 |       0.0002 |       0.0002 |       0.0000 |       0.0000 |       0.0001 |       0.1423 |       0.0000 |       0.0184 |       0.0015 |       0.1612 |       0.0057 |       0.0793 |       0.1535 |       0.1539 |       0.0779 |       0.0925 |       0.1757 |       0.1781 |       0.0996 |       0.1119 |       0.1690 |       0.1701 |       0.1078 |       0.1180 |
dl2.inv_rate                                0.0000 |       0.0000 |       0.0000 |       0.0000 |       0.0000 |       0.0000 |       0.0000 |       0.0000 |       0.0000 |       0.0000 |       0.0000 |       0.0000 |       0.0000 |       0.0000 |       0.0000 |       0.0000 |       0.0000 |       0.0000 |       0.0000 |       0.0000 |       0.0000 |       0.0000 |       0.0000 |       0.0000 |       0.0000 |       0.0000 |       0.0000 |       0.0000 |       0.0000 |       0.0000 |       0.0000 |       0.0000 |       0.0000 |       0.0000 |       0.0000 |       0.0000 |       0.0000 |       0.0000 |       0.0000 |       0.0000 |       0.0000 |       0.0000 |       0.0000 |       0.0000 |
itlb.accesses                               920945 |       920945 |       920945 |       920945 |      1866589 |      1866589 |      1866589 |      1866589 |      4175975 |      4175975 |      4175975 |      4175975 |      8492180 |      8492180 |      8492180 |      8492180 |     18816348 |     18816348 |     18816348 |     18816348 |     38279663 |     38279663 |     38279663 |     38279663 |     83912240 |     83912240 |     83912240 |     83912240 |    170357518 |    170357518 |    170357518 |    170357518 |    370173673 |    370173673 |    370173673 |    370173673 |    750532672 |    750532672 |    750532672 |    750532672 |   1619053989 |   1619053989 |   1619053989 |   1619053989 |
itlb.hits                                   920934 |       920934 |       920934 |       920934 |      1866578 |      1866578 |      1866578 |      1866578 |      4175964 |      4175964 |      4175964 |      4175964 |      8492169 |      8492169 |      8492169 |      8492169 |     18816337 |     18816337 |     18816337 |     18816337 |     38279652 |     38279652 |     38279652 |     38279652 |     83912229 |     83912229 |     83912229 |     83912229 |    170357507 |    170357507 |    170357507 |    170357507 |    370173662 |    370173662 |    370173662 |    370173662 |    750532661 |    750532661 |    750532661 |    750532661 |   1619053978 |   1619053978 |   1619053978 |   1619053978 |
itlb.misses                                     11 |           11 |           11 |           11 |           11 |           11 |           11 |           11 |           11 |           11 |           11 |           11 |           11 |           11 |           11 |           11 |           11 |           11 |           11 |           11 |           11 |           11 |           11 |           11 |           11 |           11 |           11 |           11 |           11 |           11 |           11 |           11 |           11 |           11 |           11 |           11 |           11 |           11 |           11 |           11 |           11 |           11 |           11 |           11 |
itlb.replacements                                0 |            0 |            0 |            0 |            0 |            0 |            0 |            0 |            0 |            0 |            0 |            0 |            0 |            0 |            0 |            0 |            0 |            0 |            0 |            0 |            0 |            0 |            0 |            0 |            0 |            0 |            0 |            0 |            0 |            0 |            0 |            0 |            0 |            0 |            0 |            0 |            0 |            0 |            0 |            0 |            0 |            0 |            0 |            0 |
itlb.writebacks                                  0 |            0 |            0 |            0 |            0 |            0 |            0 |            0 |            0 |            0 |            0 |            0 |            0 |            0 |            0 |            0 |            0 |            0 |            0 |            0 |            0 |            0 |            0 |            0 |            0 |            0 |            0 |            0 |            0 |            0 |            0 |            0 |            0 |            0 |            0 |            0 |            0 |            0 |            0 |            0 |            0 |            0 |            0 |            0 |
itlb.invalidations                               0 |            0 |            0 |            0 |            0 |            0 |            0 |            0 |            0 |            0 |            0 |            0 |            0 |            0 |            0 |            0 |            0 |            0 |            0 |            0 |            0 |            0 |            0 |            0 |            0 |            0 |            0 |            0 |            0 |            0 |            0 |            0 |            0 |            0 |            0 |            0 |            0 |            0 |            0 |            0 |            0 |            0 |            0 |            0 |
itlb.miss_rate                              0.0000 |       0.0000 |       0.0000 |       0.0000 |       0.0000 |       0.0000 |       0.0000 |       0.0000 |       0.0000 |       0.0000 |       0.0000 |       0.0000 |       0.0000 |       0.0000 |       0.0000 |       0.0000 |       0.0000 |       0.0000 |       0.0000 |       0.0000 |       0.0000 |       0.0000 |       0.0000 |       0.0000 |       0.0000 |       0.0000 |       0.0000 |       0.0000 |       0.0000 |       0.0000 |       0.0000 |       0.0000 |       0.0000 |       0.0000 |       0.0000 |       0.0000 |       0.0000 |       0.0000 |       0.0000 |       0.0000 |       0.0000 |       0.0000 |       0.0000 |       0.0000 |
itlb.repl_rate                              0.0000 |       0.0000 |       0.0000 |       0.0000 |       0.0000 |       0.0000 |       0.0000 |       0.0000 |       0.0000 |       0.0000 |       0.0000 |       0.0000 |       0.0000 |       0.0000 |       0.0000 |       0.0000 |       0.0000 |       0.0000 |       0.0000 |       0.0000 |       0.0000 |       0.0000 |       0.0000 |       0.0000 |       0.0000 |       0.0000 |       0.0000 |       0.0000 |       0.0000 |       0.0000 |       0.0000 |       0.0000 |       0.0000 |       0.0000 |       0.0000 |       0.0000 |       0.0000 |       0.0000 |       0.0000 |       0.0000 |       0.0000 |       0.0000 |       0.0000 |       0.0000 |
itlb.wb_rate                                0.0000 |       0.0000 |       0.0000 |       0.0000 |       0.0000 |       0.0000 |       0.0000 |       0.0000 |       0.0000 |       0.0000 |       0.0000 |       0.0000 |       0.0000 |       0.0000 |       0.0000 |       0.0000 |       0.0000 |       0.0000 |       0.0000 |       0.0000 |       0.0000 |       0.0000 |       0.0000 |       0.0000 |       0.0000 |       0.0000 |       0.0000 |       0.0000 |       0.0000 |       0.0000 |       0.0000 |       0.0000 |       0.0000 |       0.0000 |       0.0000 |       0.0000 |       0.0000 |       0.0000 |       0.0000 |       0.0000 |       0.0000 |       0.0000 |       0.0000 |       0.0000 |
itlb.inv_rate                               0.0000 |       0.0000 |       0.0000 |       0.0000 |       0.0000 |       0.0000 |       0.0000 |       0.0000 |       0.0000 |       0.0000 |       0.0000 |       0.0000 |       0.0000 |       0.0000 |       0.0000 |       0.0000 |       0.0000 |       0.0000 |       0.0000 |       0.0000 |       0.0000 |       0.0000 |       0.0000 |       0.0000 |       0.0000 |       0.0000 |       0.0000 |       0.0000 |       0.0000 |       0.0000 |       0.0000 |       0.0000 |       0.0000 |       0.0000 |       0.0000 |       0.0000 |       0.0000 |       0.0000 |       0.0000 |       0.0000 |       0.0000 |       0.0000 |       0.0000 |       0.0000 |
dtlb.accesses                               270353 |       270353 |       270353 |       270353 |       551075 |       551075 |       551075 |       551075 |      1205086 |      1205086 |      1205086 |      1205086 |      2473876 |      2473876 |      2473876 |      2473876 |      5385718 |      5385718 |      5385718 |      5385718 |     11057924 |     11057924 |     11057924 |     11057924 |     23886865 |     23886865 |     23886865 |     23886865 |     48929004 |     48929004 |     48929004 |     48929004 |    104958665 |    104958665 |    104958665 |    104958665 |    214534072 |    214534072 |    214534072 |    214534072 |    457537594 |    457537594 |    457537594 |    457537594 |
dtlb.hits                                   270338 |       270338 |       270338 |       270338 |       551052 |       551052 |       551052 |       551052 |      1205047 |      1205047 |      1205047 |      1205047 |      2473805 |      2473805 |      2473805 |      2473805 |      5385530 |      5385530 |      5385530 |      5385530 |     11056001 |     11056001 |     11056001 |     11056001 |     23882479 |     23882479 |     23882479 |     23882479 |     48919338 |     48919338 |     48919338 |     48919338 |    104937295 |    104937295 |    104937295 |    104937295 |    214487240 |    214487240 |    214487240 |    214487240 |    457435742 |    457435742 |    457435742 |    457435742 |
dtlb.misses                                     15 |           15 |           15 |           15 |           23 |           23 |           23 |           23 |           39 |           39 |           39 |           39 |           71 |           71 |           71 |           71 |          188 |          188 |          188 |          188 |         1923 |         1923 |         1923 |         1923 |         4386 |         4386 |         4386 |         4386 |         9666 |         9666 |         9666 |         9666 |        21370 |        21370 |        21370 |        21370 |        46832 |        46832 |        46832 |        46832 |       101852 |       101852 |       101852 |       101852 |
dtlb.replacements                                0 |            0 |            0 |            0 |            0 |            0 |            0 |            0 |            0 |            0 |            0 |            0 |            0 |            0 |            0 |            0 |           60 |           60 |           60 |           60 |         1795 |         1795 |         1795 |         1795 |         4258 |         4258 |         4258 |         4258 |         9538 |         9538 |         9538 |         9538 |        21242 |        21242 |        21242 |        21242 |        46704 |        46704 |        46704 |        46704 |       101724 |       101724 |       101724 |       101724 |
dtlb.writebacks                                  0 |            0 |            0 |            0 |            0 |            0 |            0 |            0 |            0 |            0 |            0 |            0 |            0 |            0 |            0 |            0 |           42 |           42 |           42 |           42 |         1093 |         1093 |         1093 |         1093 |         2517 |         2517 |         2517 |         2517 |         5545 |         5545 |         5545 |         5545 |        12168 |        12168 |        12168 |        12168 |        26440 |        26440 |        26440 |        26440 |        57038 |        57038 |        57038 |        57038 |
dtlb.invalidations                               0 |            0 |            0 |            0 |            0 |            0 |            0 |            0 |            0 |            0 |            0 |            0 |            0 |            0 |            0 |            0 |            0 |            0 |            0 |            0 |            0 |            0 |            0 |            0 |            0 |            0 |            0 |            0 |            0 |            0 |            0 |            0 |            0 |            0 |            0 |            0 |            0 |            0 |            0 |            0 |            0 |            0 |            0 |            0 |
dtlb.miss_rate                              0.0001 |       0.0001 |       0.0001 |       0.0001 |       0.0000 |       0.0000 |       0.0000 |       0.0000 |       0.0000 |       0.0000 |       0.0000 |       0.0000 |       0.0000 |       0.0000 |       0.0000 |       0.0000 |       0.0000 |       0.0000 |       0.0000 |       0.0000 |       0.0002 |       0.0002 |       0.0002 |       0.0002 |       0.0002 |       0.0002 |       0.0002 |       0.0002 |       0.0002 |       0.0002 |       0.0002 |       0.0002 |       0.0002 |       0.0002 |       0.0002 |       0.0002 |       0.0002 |       0.0002 |       0.0002 |       0.0002 |       0.0002 |       0.0002 |       0.0002 |       0.0002 |
dtlb.repl_rate                              0.0000 |       0.0000 |       0.0000 |       0.0000 |       0.0000 |       0.0000 |       0.0000 |       0.0000 |       0.0000 |       0.0000 |       0.0000 |       0.0000 |       0.0000 |       0.0000 |       0.0000 |       0.0000 |       0.0000 |       0.0000 |       0.0000 |       0.0000 |       0.0002 |       0.0002 |       0.0002 |       0.0002 |       0.0002 |       0.0002 |       0.0002 |       0.0002 |       0.0002 |       0.0002 |       0.0002 |       0.0002 |       0.0002 |       0.0002 |       0.0002 |       0.0002 |       0.0002 |       0.0002 |       0.0002 |       0.0002 |       0.0002 |       0.0002 |       0.0002 |       0.0002 |
dtlb.wb_rate                                0.0000 |       0.0000 |       0.0000 |       0.0000 |       0.0000 |       0.0000 |       0.0000 |       0.0000 |       0.0000 |       0.0000 |       0.0000 |       0.0000 |       0.0000 |       0.0000 |       0.0000 |       0.0000 |       0.0000 |       0.0000 |       0.0000 |       0.0000 |       0.0001 |       0.0001 |       0.0001 |       0.0001 |       0.0001 |       0.0001 |       0.0001 |       0.0001 |       0.0001 |       0.0001 |       0.0001 |       0.0001 |       0.0001 |       0.0001 |       0.0001 |       0.0001 |       0.0001 |       0.0001 |       0.0001 |       0.0001 |       0.0001 |       0.0001 |       0.0001 |       0.0001 |
dtlb.inv_rate                               0.0000 |       0.0000 |       0.0000 |       0.0000 |       0.0000 |       0.0000 |       0.0000 |       0.0000 |       0.0000 |       0.0000 |       0.0000 |       0.0000 |       0.0000 |       0.0000 |       0.0000 |       0.0000 |       0.0000 |       0.0000 |       0.0000 |       0.0000 |       0.0000 |       0.0000 |       0.0000 |       0.0000 |       0.0000 |       0.0000 |       0.0000 |       0.0000 |       0.0000 |       0.0000 |       0.0000 |       0.0000 |       0.0000 |       0.0000 |       0.0000 |       0.0000 |       0.0000 |       0.0000 |       0.0000 |       0.0000 |       0.0000 |       0.0000 |       0.0000 |       0.0000 |
ld_text_base                            0x00400000 |   0x00400000 |   0x00400000 |   0x00400000 |   0x00400000 |   0x00400000 |   0x00400000 |   0x00400000 |   0x00400000 |   0x00400000 |   0x00400000 |   0x00400000 |   0x00400000 |   0x00400000 |   0x00400000 |   0x00400000 |   0x00400000 |   0x00400000 |   0x00400000 |   0x00400000 |   0x00400000 |   0x00400000 |   0x00400000 |   0x00400000 |   0x00400000 |   0x00400000 |   0x00400000 |   0x00400000 |   0x00400000 |   0x00400000 |   0x00400000 |   0x00400000 |   0x00400000 |   0x00400000 |   0x00400000 |   0x00400000 |   0x00400000 |   0x00400000 |   0x00400000 |   0x00400000 |   0x00400000 |   0x00400000 |   0x00400000 |   0x00400000 |
ld_text_size                                 42176 |        42176 |        42176 |        42176 |        42208 |        42208 |        42208 |        42208 |        42224 |        42224 |        42224 |        42224 |        42256 |        42256 |        42256 |        42256 |        42256 |        42256 |        42256 |        42256 |        42256 |        42256 |        42256 |        42256 |        42256 |        42256 |        42256 |        42256 |        42256 |        42256 |        42256 |        42256 |        42256 |        42256 |        42256 |        42256 |        42256 |        42256 |        42256 |        42256 |        42256 |        42256 |        42256 |        42256 |
ld_data_base                            0x10000000 |   0x10000000 |   0x10000000 |   0x10000000 |   0x10000000 |   0x10000000 |   0x10000000 |   0x10000000 |   0x10000000 |   0x10000000 |   0x10000000 |   0x10000000 |   0x10000000 |   0x10000000 |   0x10000000 |   0x10000000 |   0x10000000 |   0x10000000 |   0x10000000 |   0x10000000 |   0x10000000 |   0x10000000 |   0x10000000 |   0x10000000 |   0x10000000 |   0x10000000 |   0x10000000 |   0x10000000 |   0x10000000 |   0x10000000 |   0x10000000 |   0x10000000 |   0x10000000 |   0x10000000 |   0x10000000 |   0x10000000 |   0x10000000 |   0x10000000 |   0x10000000 |   0x10000000 |   0x10000000 |   0x10000000 |   0x10000000 |   0x10000000 |
ld_data_size                                  4096 |         4096 |         4096 |         4096 |         4096 |         4096 |         4096 |         4096 |         4096 |         4096 |         4096 |         4096 |         4096 |         4096 |         4096 |         4096 |         4096 |         4096 |         4096 |         4096 |         4096 |         4096 |         4096 |         4096 |         4096 |         4096 |         4096 |         4096 |         4096 |         4096 |         4096 |         4096 |         4096 |         4096 |         4096 |         4096 |         4096 |         4096 |         4096 |         4096 |         4096 |         4096 |         4096 |         4096 |
ld_stack_base                           0x7fffc000 |   0x7fffc000 |   0x7fffc000 |   0x7fffc000 |   0x7fffc000 |   0x7fffc000 |   0x7fffc000 |   0x7fffc000 |   0x7fffc000 |   0x7fffc000 |   0x7fffc000 |   0x7fffc000 |   0x7fffc000 |   0x7fffc000 |   0x7fffc000 |   0x7fffc000 |   0x7fffc000 |   0x7fffc000 |   0x7fffc000 |   0x7fffc000 |   0x7fffc000 |   0x7fffc000 |   0x7fffc000 |   0x7fffc000 |   0x7fffc000 |   0x7fffc000 |   0x7fffc000 |   0x7fffc000 |   0x7fffc000 |   0x7fffc000 |   0x7fffc000 |   0x7fffc000 |   0x7fffc000 |   0x7fffc000 |   0x7fffc000 |   0x7fffc000 |   0x7fffc000 |   0x7fffc000 |   0x7fffc000 |   0x7fffc000 |   0x7fffc000 |   0x7fffc000 |   0x7fffc000 |   0x7fffc000 |
ld_stack_size                                16384 |        16384 |        16384 |        16384 |        16384 |        16384 |        16384 |        16384 |        16384 |        16384 |        16384 |        16384 |        16384 |        16384 |        16384 |        16384 |        16384 |        16384 |        16384 |        16384 |        16384 |        16384 |        16384 |        16384 |        16384 |        16384 |        16384 |        16384 |        16384 |        16384 |        16384 |        16384 |        16384 |        16384 |        16384 |        16384 |        16384 |        16384 |        16384 |        16384 |        16384 |        16384 |        16384 |        16384 |
ld_prog_entry                           0x00400140 |   0x00400140 |   0x00400140 |   0x00400140 |   0x00400140 |   0x00400140 |   0x00400140 |   0x00400140 |   0x00400140 |   0x00400140 |   0x00400140 |   0x00400140 |   0x00400140 |   0x00400140 |   0x00400140 |   0x00400140 |   0x00400140 |   0x00400140 |   0x00400140 |   0x00400140 |   0x00400140 |   0x00400140 |   0x00400140 |   0x00400140 |   0x00400140 |   0x00400140 |   0x00400140 |   0x00400140 |   0x00400140 |   0x00400140 |   0x00400140 |   0x00400140 |   0x00400140 |   0x00400140 |   0x00400140 |   0x00400140 |   0x00400140 |   0x00400140 |   0x00400140 |   0x00400140 |   0x00400140 |   0x00400140 |   0x00400140 |   0x00400140 |
ld_environ_base                         0x7fff8000 |   0x7fff8000 |   0x7fff8000 |   0x7fff8000 |   0x7fff8000 |   0x7fff8000 |   0x7fff8000 |   0x7fff8000 |   0x7fff8000 |   0x7fff8000 |   0x7fff8000 |   0x7fff8000 |   0x7fff8000 |   0x7fff8000 |   0x7fff8000 |   0x7fff8000 |   0x7fff8000 |   0x7fff8000 |   0x7fff8000 |   0x7fff8000 |   0x7fff8000 |   0x7fff8000 |   0x7fff8000 |   0x7fff8000 |   0x7fff8000 |   0x7fff8000 |   0x7fff8000 |   0x7fff8000 |   0x7fff8000 |   0x7fff8000 |   0x7fff8000 |   0x7fff8000 |   0x7fff8000 |   0x7fff8000 |   0x7fff8000 |   0x7fff8000 |   0x7fff8000 |   0x7fff8000 |   0x7fff8000 |   0x7fff8000 |   0x7fff8000 |   0x7fff8000 |   0x7fff8000 |   0x7fff8000 |
ld_target_big_endian                             0 |            0 |            0 |            0 |            0 |            0 |            0 |            0 |            0 |            0 |            0 |            0 |            0 |            0 |            0 |            0 |            0 |            0 |            0 |            0 |            0 |            0 |            0 |            0 |            0 |            0 |            0 |            0 |            0 |            0 |            0 |            0 |            0 |            0 |            0 |            0 |            0 |            0 |            0 |            0 |            0 |            0 |            0 |            0 |
mem.page_count                                  26 |           26 |           26 |           26 |           34 |           34 |           34 |           34 |           50 |           50 |           50 |           50 |           82 |           82 |           82 |           82 |          146 |          146 |          146 |          146 |          274 |          274 |          274 |          274 |          530 |          530 |          530 |          530 |         1048 |         1048 |         1048 |         1048 |         2072 |         2072 |         2072 |         2072 |         4126 |         4126 |         4126 |         4126 |         8234 |         8234 |         8234 |         8234 |
mem.page_mem                                  104k |         104k |         104k |         104k |         136k |         136k |         136k |         136k |         200k |         200k |         200k |         200k |         328k |         328k |         328k |         328k |         584k |         584k |         584k |         584k |        1096k |        1096k |        1096k |        1096k |        2120k |        2120k |        2120k |        2120k |        4192k |        4192k |        4192k |        4192k |        8288k |        8288k |        8288k |        8288k |       16504k |       16504k |       16504k |       16504k |       32936k |       32936k |       32936k |       32936k |
mem.ptab_misses                                 26 |           26 |           26 |           26 |           34 |           34 |           34 |           34 |           50 |           50 |           50 |           50 |           82 |           82 |           82 |           82 |          146 |          146 |          146 |          146 |          274 |          274 |          274 |          274 |          530 |          530 |          530 |          530 |         3204 |         3204 |         3204 |         3204 |       121737 |       121737 |       121737 |       121737 |       122565 |       122565 |       122565 |       122565 |       137355 |       137355 |       137355 |       137355 |
mem.ptab_accesses                          4482802 |      4482802 |      4482802 |      4482802 |      8827014 |      8827014 |      8827014 |      8827014 |     19372676 |     19372676 |     19372676 |     19372676 |     39175268 |     39175268 |     39175268 |     39175268 |     86295624 |     86295624 |     86295624 |     86295624 |    175493296 |    175493296 |    175493296 |    175493296 |    383681486 |    383681486 |    383681486 |    383681486 |    779546876 |    779546876 |    779546876 |    779546876 |   1690870818 |   1690870818 |   1690870818 |   1690870818 |   3431457628 |   3431457628 |   3431457628 |   3431457628 |   7391549940 |   7391549940 |   7391549940 |   7391549940 |
mem.ptab_miss_rate                          0.0000 |       0.0000 |       0.0000 |       0.0000 |       0.0000 |       0.0000 |       0.0000 |       0.0000 |       0.0000 |       0.0000 |       0.0000 |       0.0000 |       0.0000 |       0.0000 |       0.0000 |       0.0000 |       0.0000 |       0.0000 |       0.0000 |       0.0000 |       0.0000 |       0.0000 |       0.0000 |       0.0000 |       0.0000 |       0.0000 |       0.0000 |       0.0000 |       0.0000 |       0.0000 |       0.0000 |       0.0000 |       0.0001 |       0.0001 |       0.0001 |       0.0001 |       0.0000 |       0.0000 |       0.0000 |       0.0000 |       0.0000 |       0.0000 |       0.0000 |       0.0000 |
-------------------------------------------------------------------------------------------------
sim-bpred                                     4096 |         4096 |         4096 |         4096 |         4096 |         4096 |         4096 |         8192 |         8192 |         8192 |         8192 |         8192 |         8192 |         8192 |        16384 |        16384 |        16384 |        16384 |        16384 |        16384 |        16384 |        32768 |        32768 |        32768 |        32768 |        32768 |        32768 |        32768 |        65536 |        65536 |        65536 |        65536 |        65536 |        65536 |        65536 |       131072 |       131072 |       131072 |       131072 |       131072 |       131072 |       131072 |       262144 |       262144 |       262144 |       262144 |       262144 |       262144 |       262144 |       524288 |       524288 |       524288 |       524288 |       524288 |       524288 |       524288 |      1048576 |      1048576 |      1048576 |      1048576 |      1048576 |      1048576 |      1048576 |      2097152 |      2097152 |      2097152 |      2097152 |      2097152 |      2097152 |      2097152 |      4194304 |      4194304 |      4194304 |      4194304 |      4194304 |      4194304 |      4194304 |
-bpred bimod -bpred:bimod 512
-bpred bimod -bpred:bimod 1024
-bpred bimod -bpred:bimod 2048
-bpred 2lev -bpred:2lev 1 512 10 1
-bpred 2lev -bpred:2lev 1 1024 10 1
-bpred 2lev -bpred:2lev 1 2048 10 1
-bpred 2lev -bpred:2lev 1 4096 10 1
-------------------------------------------------------------------------------------------------
sim_num_insn                                920945 |       920945 |       920945 |       920945 |       920945 |       920945 |       920945 |      1866589 |      1866589 |      1866589 |      1866589 |      1866589 |      1866589 |      1866589 |      4175975 |      4175975 |      4175975 |      4175975 |      4175975 |      4175975 |      4175975 |      8492180 |      8492180 |      8492180 |      8492180 |      8492180 |      8492180 |      8492180 |     18816348 |     18816348 |     18816348 |     18816348 |     18816348 |     18816348 |     18816348 |     38279663 |     38279663 |     38279663 |     38279663 |     38279663 |     38279663 |     38279663 |     83912240 |     83912240 |     83912240 |     83912240 |     83912240 |     83912240 |     83912240 |    170357518 |    170357518 |    170357518 |    170357518 |    170357518 |    170357518 |    170357518 |    370173673 |    370173673 |    370173673 |    370173673 |    370173673 |    370173673 |    370173673 |    750532672 |    750532672 |    750532672 |    750532672 |    750532672 |    750532672 |    750532672 |   1619053989 |   1619053989 |   1619053989 |   1619053989 |   1619053989 |   1619053989 |   1619053989 |
sim_num_refs                                270283 |       270283 |       270283 |       270283 |       270283 |       270283 |       270283 |       551005 |       551005 |       551005 |       551005 |       551005 |       551005 |       551005 |      1205016 |      1205016 |      1205016 |      1205016 |      1205016 |      1205016 |      1205016 |      2473806 |      2473806 |      2473806 |      2473806 |      2473806 |      2473806 |      2473806 |      5385648 |      5385648 |      5385648 |      5385648 |      5385648 |      5385648 |      5385648 |     11057854 |     11057854 |     11057854 |     11057854 |     11057854 |     11057854 |     11057854 |     23886795 |     23886795 |     23886795 |     23886795 |     23886795 |     23886795 |     23886795 |     48928934 |     48928934 |     48928934 |     48928934 |     48928934 |     48928934 |     48928934 |    104958595 |    104958595 |    104958595 |    104958595 |    104958595 |    104958595 |    104958595 |    214534002 |    214534002 |    214534002 |    214534002 |    214534002 |    214534002 |    214534002 |    457537524 |    457537524 |    457537524 |    457537524 |    457537524 |    457537524 |    457537524 |
sim_elapsed_time                                 1 |            1 |            1 |            1 |            1 |            1 |            1 |            1 |            1 |            1 |            1 |            1 |            1 |            1 |            1 |            1 |            1 |            1 |            1 |            1 |            1 |            1 |            1 |            1 |            1 |            1 |            1 |            1 |            2 |            2 |            2 |            2 |            2 |            4 |            2 |            4 |            4 |            4 |            4 |            4 |            5 |            4 |            9 |            9 |            9 |           10 |            9 |            9 |            9 |           18 |           18 |           19 |           18 |           19 |           19 |           19 |           40 |           39 |           40 |           40 |           41 |           43 |           40 |           81 |           82 |           82 |           83 |           84 |           84 |           82 |          173 |          173 |          174 |          175 |          174 |          179 |          177 |
sim_inst_rate                          920945.0000 |  920945.0000 |  920945.0000 |  920945.0000 |  920945.0000 |  920945.0000 |  920945.0000 | 1866589.0000 | 1866589.0000 | 1866589.0000 | 1866589.0000 | 1866589.0000 | 1866589.0000 | 1866589.0000 | 4175975.0000 | 4175975.0000 | 4175975.0000 | 4175975.0000 | 4175975.0000 | 4175975.0000 | 4175975.0000 | 8492180.0000 | 8492180.0000 | 8492180.0000 | 8492180.0000 | 8492180.0000 | 8492180.0000 | 8492180.0000 | 9408174.0000 | 9408174.0000 | 9408174.0000 | 9408174.0000 | 9408174.0000 | 4704087.0000 | 9408174.0000 | 9569915.7500 | 9569915.7500 | 9569915.7500 | 9569915.7500 | 9569915.7500 | 7655932.6000 | 9569915.7500 | 9323582.2222 | 9323582.2222 | 9323582.2222 | 8391224.0000 | 9323582.2222 | 9323582.2222 | 9323582.2222 | 9464306.5556 | 9464306.5556 | 8966185.1579 | 9464306.5556 | 8966185.1579 | 8966185.1579 | 8966185.1579 | 9254341.8250 | 9491632.6410 | 9254341.8250 | 9254341.8250 | 9028626.1707 | 8608690.0698 | 9254341.8250 | 9265835.4568 | 9152837.4634 | 9152837.4634 | 9042562.3133 | 8934912.7619 | 8934912.7619 | 9152837.4634 | 9358693.5780 | 9358693.5780 | 9304907.9828 | 9251737.0800 | 9304907.9828 | 9044994.3520 | 9147197.6780 |
sim_num_branches                            133646 |       133646 |       133646 |       133646 |       133646 |       133646 |       133646 |       276717 |       276717 |       276717 |       276717 |       276717 |       276717 |       276717 |       592328 |       592328 |       592328 |       592328 |       592328 |       592328 |       592328 |      1229091 |      1229091 |      1229091 |      1229091 |      1229091 |      1229091 |      1229091 |      2623472 |      2623472 |      2623472 |      2623472 |      2623472 |      2623472 |      2623472 |      5437964 |      5437964 |      5437964 |      5437964 |      5437964 |      5437964 |      5437964 |     11542081 |     11542081 |     11542081 |     11542081 |     11542081 |     11542081 |     11542081 |     23840581 |     23840581 |     23840581 |     23840581 |     23840581 |     23840581 |     23840581 |     50355144 |     50355144 |     50355144 |     50355144 |     50355144 |     50355144 |     50355144 |    103752597 |    103752597 |    103752597 |    103752597 |    103752597 |    103752597 |    103752597 |    218217668 |    218217668 |    218217668 |    218217668 |    218217668 |    218217668 |    218217668 |
sim_IPB                                     6.8909 |       6.8909 |       6.8909 |       6.8909 |       6.8909 |       6.8909 |       6.8909 |       6.7455 |       6.7455 |       6.7455 |       6.7455 |       6.7455 |       6.7455 |       6.7455 |       7.0501 |       7.0501 |       7.0501 |       7.0501 |       7.0501 |       7.0501 |       7.0501 |       6.9093 |       6.9093 |       6.9093 |       6.9093 |       6.9093 |       6.9093 |       6.9093 |       7.1723 |       7.1723 |       7.1723 |       7.1723 |       7.1723 |       7.1723 |       7.1723 |       7.0393 |       7.0393 |       7.0393 |       7.0393 |       7.0393 |       7.0393 |       7.0393 |       7.2701 |       7.2701 |       7.2701 |       7.2701 |       7.2701 |       7.2701 |       7.2701 |       7.1457 |       7.1457 |       7.1457 |       7.1457 |       7.1457 |       7.1457 |       7.1457 |       7.3513 |       7.3513 |       7.3513 |       7.3513 |       7.3513 |       7.3513 |       7.3513 |       7.2339 |       7.2339 |       7.2339 |       7.2339 |       7.2339 |       7.2339 |       7.2339 |       7.4194 |       7.4194 |       7.4194 |       7.4194 |       7.4194 |       7.4194 |       7.4194 |
bpred_bimod.lookups                         133646 |       133646 |       133646 |xxxxxxxxxxxxx |xxxxxxxxxxxxx |xxxxxxxxxxxxx |xxxxxxxxxxxxx |       276717 |       276717 |       276717 |xxxxxxxxxxxxx |xxxxxxxxxxxxx |xxxxxxxxxxxxx |xxxxxxxxxxxxx |       592328 |       592328 |       592328 |xxxxxxxxxxxxx |xxxxxxxxxxxxx |xxxxxxxxxxxxx |xxxxxxxxxxxxx |      1229091 |      1229091 |      1229091 |xxxxxxxxxxxxx |xxxxxxxxxxxxx |xxxxxxxxxxxxx |xxxxxxxxxxxxx |      2623472 |      2623472 |      2623472 |xxxxxxxxxxxxx |xxxxxxxxxxxxx |xxxxxxxxxxxxx |xxxxxxxxxxxxx |      5437964 |      5437964 |      5437964 |xxxxxxxxxxxxx |xxxxxxxxxxxxx |xxxxxxxxxxxxx |xxxxxxxxxxxxx |     11542081 |     11542081 |     11542081 |xxxxxxxxxxxxx |xxxxxxxxxxxxx |xxxxxxxxxxxxx |xxxxxxxxxxxxx |     23840581 |     23840581 |     23840581 |xxxxxxxxxxxxx |xxxxxxxxxxxxx |xxxxxxxxxxxxx |xxxxxxxxxxxxx |     50355144 |     50355144 |     50355144 |xxxxxxxxxxxxx |xxxxxxxxxxxxx |xxxxxxxxxxxxx |xxxxxxxxxxxxx |    103752597 |    103752597 |    103752597 |xxxxxxxxxxxxx |xxxxxxxxxxxxx |xxxxxxxxxxxxx |xxxxxxxxxxxxx |    218217668 |    218217668 |    218217668 |
bpred_bimod.updates                         133646 |       133646 |       133646 |xxxxxxxxxxxxx |xxxxxxxxxxxxx |xxxxxxxxxxxxx |xxxxxxxxxxxxx |       276717 |       276717 |       276717 |xxxxxxxxxxxxx |xxxxxxxxxxxxx |xxxxxxxxxxxxx |xxxxxxxxxxxxx |       592328 |       592328 |       592328 |xxxxxxxxxxxxx |xxxxxxxxxxxxx |xxxxxxxxxxxxx |xxxxxxxxxxxxx |      1229091 |      1229091 |      1229091 |xxxxxxxxxxxxx |xxxxxxxxxxxxx |xxxxxxxxxxxxx |xxxxxxxxxxxxx |      2623472 |      2623472 |      2623472 |xxxxxxxxxxxxx |xxxxxxxxxxxxx |xxxxxxxxxxxxx |xxxxxxxxxxxxx |      5437964 |      5437964 |      5437964 |xxxxxxxxxxxxx |xxxxxxxxxxxxx |xxxxxxxxxxxxx |xxxxxxxxxxxxx |     11542081 |     11542081 |     11542081 |xxxxxxxxxxxxx |xxxxxxxxxxxxx |xxxxxxxxxxxxx |xxxxxxxxxxxxx |     23840581 |     23840581 |     23840581 |xxxxxxxxxxxxx |xxxxxxxxxxxxx |xxxxxxxxxxxxx |xxxxxxxxxxxxx |     50355144 |     50355144 |     50355144 |xxxxxxxxxxxxx |xxxxxxxxxxxxx |xxxxxxxxxxxxx |xxxxxxxxxxxxx |    103752597 |    103752597 |    103752597 |xxxxxxxxxxxxx |xxxxxxxxxxxxx |xxxxxxxxxxxxx |xxxxxxxxxxxxx |    218217668 |    218217668 |    218217668 |
bpred_bimod.addr_hits                       107709 |       107715 |       107721 |xxxxxxxxxxxxx |xxxxxxxxxxxxx |xxxxxxxxxxxxx |xxxxxxxxxxxxx |       224647 |       224658 |       224662 |xxxxxxxxxxxxx |xxxxxxxxxxxxx |xxxxxxxxxxxxx |xxxxxxxxxxxxx |       473320 |       473339 |       473345 |xxxxxxxxxxxxx |xxxxxxxxxxxxx |xxxxxxxxxxxxx |xxxxxxxxxxxxx |       988823 |       988845 |       988845 |xxxxxxxxxxxxx |xxxxxxxxxxxxx |xxxxxxxxxxxxx |xxxxxxxxxxxxx |      2083826 |      2083872 |      2083873 |xxxxxxxxxxxxx |xxxxxxxxxxxxx |xxxxxxxxxxxxx |xxxxxxxxxxxxx |      4346352 |      4346424 |      4346425 |xxxxxxxxxxxxx |xxxxxxxxxxxxx |xxxxxxxxxxxxx |xxxxxxxxxxxxx |      9119797 |      9119936 |      9119939 |xxxxxxxxxxxxx |xxxxxxxxxxxxx |xxxxxxxxxxxxx |xxxxxxxxxxxxx |     18949322 |     18949536 |     18949535 |xxxxxxxxxxxxx |xxxxxxxxxxxxx |xxxxxxxxxxxxx |xxxxxxxxxxxxx |     39614443 |     39615007 |     39615006 |xxxxxxxxxxxxx |xxxxxxxxxxxxx |xxxxxxxxxxxxx |xxxxxxxxxxxxx |     82088704 |     82089624 |     82089620 |xxxxxxxxxxxxx |xxxxxxxxxxxxx |xxxxxxxxxxxxx |xxxxxxxxxxxxx |    171066772 |    171069021 |    171069018 |
bpred_bimod.dir_hits                        107864 |       107867 |       107873 |xxxxxxxxxxxxx |xxxxxxxxxxxxx |xxxxxxxxxxxxx |xxxxxxxxxxxxx |       224811 |       224819 |       224823 |xxxxxxxxxxxxx |xxxxxxxxxxxxx |xxxxxxxxxxxxx |xxxxxxxxxxxxx |       473494 |       473507 |       473514 |xxxxxxxxxxxxx |xxxxxxxxxxxxx |xxxxxxxxxxxxx |xxxxxxxxxxxxx |       988993 |       989013 |       989012 |xxxxxxxxxxxxx |xxxxxxxxxxxxx |xxxxxxxxxxxxx |xxxxxxxxxxxxx |      2083997 |      2084039 |      2084039 |xxxxxxxxxxxxx |xxxxxxxxxxxxx |xxxxxxxxxxxxx |xxxxxxxxxxxxx |      4346524 |      4346592 |      4346592 |xxxxxxxxxxxxx |xxxxxxxxxxxxx |xxxxxxxxxxxxx |xxxxxxxxxxxxx |      9119950 |      9120086 |      9120088 |xxxxxxxxxxxxx |xxxxxxxxxxxxx |xxxxxxxxxxxxx |xxxxxxxxxxxxx |     18949509 |     18949721 |     18949721 |xxxxxxxxxxxxx |xxxxxxxxxxxxx |xxxxxxxxxxxxx |xxxxxxxxxxxxx |     39614631 |     39615195 |     39615194 |xxxxxxxxxxxxx |xxxxxxxxxxxxx |xxxxxxxxxxxxx |xxxxxxxxxxxxx |     82088893 |     82089813 |     82089810 |xxxxxxxxxxxxx |xxxxxxxxxxxxx |xxxxxxxxxxxxx |xxxxxxxxxxxxx |    171066962 |    171069210 |    171069207 |
bpred_bimod.misses                           25782 |        25779 |        25773 |xxxxxxxxxxxxx |xxxxxxxxxxxxx |xxxxxxxxxxxxx |xxxxxxxxxxxxx |        51906 |        51898 |        51894 |xxxxxxxxxxxxx |xxxxxxxxxxxxx |xxxxxxxxxxxxx |xxxxxxxxxxxxx |       118834 |       118821 |       118814 |xxxxxxxxxxxxx |xxxxxxxxxxxxx |xxxxxxxxxxxxx |xxxxxxxxxxxxx |       240098 |       240078 |       240079 |xxxxxxxxxxxxx |xxxxxxxxxxxxx |xxxxxxxxxxxxx |xxxxxxxxxxxxx |       539475 |       539433 |       539433 |xxxxxxxxxxxxx |xxxxxxxxxxxxx |xxxxxxxxxxxxx |xxxxxxxxxxxxx |      1091440 |      1091372 |      1091372 |xxxxxxxxxxxxx |xxxxxxxxxxxxx |xxxxxxxxxxxxx |xxxxxxxxxxxxx |      2422131 |      2421995 |      2421993 |xxxxxxxxxxxxx |xxxxxxxxxxxxx |xxxxxxxxxxxxx |xxxxxxxxxxxxx |      4891072 |      4890860 |      4890860 |xxxxxxxxxxxxx |xxxxxxxxxxxxx |xxxxxxxxxxxxx |xxxxxxxxxxxxx |     10740513 |     10739949 |     10739950 |xxxxxxxxxxxxx |xxxxxxxxxxxxx |xxxxxxxxxxxxx |xxxxxxxxxxxxx |     21663704 |     21662784 |     21662787 |xxxxxxxxxxxxx |xxxxxxxxxxxxx |xxxxxxxxxxxxx |xxxxxxxxxxxxx |     47150706 |     47148458 |     47148461 |
bpred_bimod.jr_hits                           8571 |         8571 |         8571 |xxxxxxxxxxxxx |xxxxxxxxxxxxx |xxxxxxxxxxxxx |xxxxxxxxxxxxx |        16767 |        16767 |        16767 |xxxxxxxxxxxxx |xxxxxxxxxxxxx |xxxxxxxxxxxxx |xxxxxxxxxxxxx |        33159 |        33159 |        33159 |xxxxxxxxxxxxx |xxxxxxxxxxxxx |xxxxxxxxxxxxx |xxxxxxxxxxxxx |        65943 |        65943 |        65943 |xxxxxxxxxxxxx |xxxxxxxxxxxxx |xxxxxxxxxxxxx |xxxxxxxxxxxxx |       131511 |       131511 |       131511 |xxxxxxxxxxxxx |xxxxxxxxxxxxx |xxxxxxxxxxxxx |xxxxxxxxxxxxx |       262647 |       262647 |       262647 |xxxxxxxxxxxxx |xxxxxxxxxxxxx |xxxxxxxxxxxxx |xxxxxxxxxxxxx |       524919 |       524919 |       524919 |xxxxxxxxxxxxx |xxxxxxxxxxxxx |xxxxxxxxxxxxx |xxxxxxxxxxxxx |      1049468 |      1049468 |      1049468 |xxxxxxxxxxxxx |xxxxxxxxxxxxx |xxxxxxxxxxxxx |xxxxxxxxxxxxx |      2098558 |      2098558 |      2098558 |xxxxxxxxxxxxx |xxxxxxxxxxxxx |xxxxxxxxxxxxx |xxxxxxxxxxxxx |      4196738 |      4196738 |      4196738 |xxxxxxxxxxxxx |xxxxxxxxxxxxx |xxxxxxxxxxxxx |xxxxxxxxxxxxx |      8393098 |      8393098 |      8393098 |
bpred_bimod.jr_seen                           8572 |         8572 |         8572 |xxxxxxxxxxxxx |xxxxxxxxxxxxx |xxxxxxxxxxxxx |xxxxxxxxxxxxx |        16768 |        16768 |        16768 |xxxxxxxxxxxxx |xxxxxxxxxxxxx |xxxxxxxxxxxxx |xxxxxxxxxxxxx |        33160 |        33160 |        33160 |xxxxxxxxxxxxx |xxxxxxxxxxxxx |xxxxxxxxxxxxx |xxxxxxxxxxxxx |        65944 |        65944 |        65944 |xxxxxxxxxxxxx |xxxxxxxxxxxxx |xxxxxxxxxxxxx |xxxxxxxxxxxxx |       131512 |       131512 |       131512 |xxxxxxxxxxxxx |xxxxxxxxxxxxx |xxxxxxxxxxxxx |xxxxxxxxxxxxx |       262648 |       262648 |       262648 |xxxxxxxxxxxxx |xxxxxxxxxxxxx |xxxxxxxxxxxxx |xxxxxxxxxxxxx |       524920 |       524920 |       524920 |xxxxxxxxxxxxx |xxxxxxxxxxxxx |xxxxxxxxxxxxx |xxxxxxxxxxxxx |      1049469 |      1049469 |      1049469 |xxxxxxxxxxxxx |xxxxxxxxxxxxx |xxxxxxxxxxxxx |xxxxxxxxxxxxx |      2098559 |      2098559 |      2098559 |xxxxxxxxxxxxx |xxxxxxxxxxxxx |xxxxxxxxxxxxx |xxxxxxxxxxxxx |      4196739 |      4196739 |      4196739 |xxxxxxxxxxxxx |xxxxxxxxxxxxx |xxxxxxxxxxxxx |xxxxxxxxxxxxx |      8393099 |      8393099 |      8393099 |
bpred_bimod.jr_non_ras_hits.PP                   0 |            0 |            0 |xxxxxxxxxxxxx |xxxxxxxxxxxxx |xxxxxxxxxxxxx |xxxxxxxxxxxxx |            0 |            0 |            0 |xxxxxxxxxxxxx |xxxxxxxxxxxxx |xxxxxxxxxxxxx |xxxxxxxxxxxxx |            0 |            0 |            0 |xxxxxxxxxxxxx |xxxxxxxxxxxxx |xxxxxxxxxxxxx |xxxxxxxxxxxxx |            0 |            0 |            0 |xxxxxxxxxxxxx |xxxxxxxxxxxxx |xxxxxxxxxxxxx |xxxxxxxxxxxxx |            0 |            0 |            0 |xxxxxxxxxxxxx |xxxxxxxxxxxxx |xxxxxxxxxxxxx |xxxxxxxxxxxxx |            0 |            0 |            0 |xxxxxxxxxxxxx |xxxxxxxxxxxxx |xxxxxxxxxxxxx |xxxxxxxxxxxxx |            0 |            0 |            0 |xxxxxxxxxxxxx |xxxxxxxxxxxxx |xxxxxxxxxxxxx |xxxxxxxxxxxxx |            0 |            0 |            0 |xxxxxxxxxxxxx |xxxxxxxxxxxxx |xxxxxxxxxxxxx |xxxxxxxxxxxxx |            0 |            0 |            0 |xxxxxxxxxxxxx |xxxxxxxxxxxxx |xxxxxxxxxxxxx |xxxxxxxxxxxxx |            0 |            0 |            0 |xxxxxxxxxxxxx |xxxxxxxxxxxxx |xxxxxxxxxxxxx |xxxxxxxxxxxxx |            0 |            0 |            0 |
bpred_bimod.jr_non_ras_seen.PP                   0 |            0 |            0 |xxxxxxxxxxxxx |xxxxxxxxxxxxx |xxxxxxxxxxxxx |xxxxxxxxxxxxx |            0 |            0 |            0 |xxxxxxxxxxxxx |xxxxxxxxxxxxx |xxxxxxxxxxxxx |xxxxxxxxxxxxx |            0 |            0 |            0 |xxxxxxxxxxxxx |xxxxxxxxxxxxx |xxxxxxxxxxxxx |xxxxxxxxxxxxx |            0 |            0 |            0 |xxxxxxxxxxxxx |xxxxxxxxxxxxx |xxxxxxxxxxxxx |xxxxxxxxxxxxx |            0 |            0 |            0 |xxxxxxxxxxxxx |xxxxxxxxxxxxx |xxxxxxxxxxxxx |xxxxxxxxxxxxx |            0 |            0 |            0 |xxxxxxxxxxxxx |xxxxxxxxxxxxx |xxxxxxxxxxxxx |xxxxxxxxxxxxx |            0 |            0 |            0 |xxxxxxxxxxxxx |xxxxxxxxxxxxx |xxxxxxxxxxxxx |xxxxxxxxxxxxx |            1 |            1 |            1 |xxxxxxxxxxxxx |xxxxxxxxxxxxx |xxxxxxxxxxxxx |xxxxxxxxxxxxx |            1 |            1 |            1 |xxxxxxxxxxxxx |xxxxxxxxxxxxx |xxxxxxxxxxxxx |xxxxxxxxxxxxx |            1 |            1 |            1 |xxxxxxxxxxxxx |xxxxxxxxxxxxx |xxxxxxxxxxxxx |xxxxxxxxxxxxx |            1 |            1 |            1 |
bpred_bimod.bpred_addr_rate                 0.8059 |       0.8060 |       0.8060 |xxxxxxxxxxxxx |xxxxxxxxxxxxx |xxxxxxxxxxxxx |xxxxxxxxxxxxx |       0.8118 |       0.8119 |       0.8119 |xxxxxxxxxxxxx |xxxxxxxxxxxxx |xxxxxxxxxxxxx |xxxxxxxxxxxxx |       0.7991 |       0.7991 |       0.7991 |xxxxxxxxxxxxx |xxxxxxxxxxxxx |xxxxxxxxxxxxx |xxxxxxxxxxxxx |       0.8045 |       0.8045 |       0.8045 |xxxxxxxxxxxxx |xxxxxxxxxxxxx |xxxxxxxxxxxxx |xxxxxxxxxxxxx |       0.7943 |       0.7943 |       0.7943 |xxxxxxxxxxxxx |xxxxxxxxxxxxx |xxxxxxxxxxxxx |xxxxxxxxxxxxx |       0.7993 |       0.7993 |       0.7993 |xxxxxxxxxxxxx |xxxxxxxxxxxxx |xxxxxxxxxxxxx |xxxxxxxxxxxxx |       0.7901 |       0.7901 |       0.7901 |xxxxxxxxxxxxx |xxxxxxxxxxxxx |xxxxxxxxxxxxx |xxxxxxxxxxxxx |       0.7948 |       0.7948 |       0.7948 |xxxxxxxxxxxxx |xxxxxxxxxxxxx |xxxxxxxxxxxxx |xxxxxxxxxxxxx |       0.7867 |       0.7867 |       0.7867 |xxxxxxxxxxxxx |xxxxxxxxxxxxx |xxxxxxxxxxxxx |xxxxxxxxxxxxx |       0.7912 |       0.7912 |       0.7912 |xxxxxxxxxxxxx |xxxxxxxxxxxxx |xxxxxxxxxxxxx |xxxxxxxxxxxxx |       0.7839 |       0.7839 |       0.7839 |
bpred_bimod.bpred_dir_rate                  0.8071 |       0.8071 |       0.8072 |xxxxxxxxxxxxx |xxxxxxxxxxxxx |xxxxxxxxxxxxx |xxxxxxxxxxxxx |       0.8124 |       0.8125 |       0.8125 |xxxxxxxxxxxxx |xxxxxxxxxxxxx |xxxxxxxxxxxxx |xxxxxxxxxxxxx |       0.7994 |       0.7994 |       0.7994 |xxxxxxxxxxxxx |xxxxxxxxxxxxx |xxxxxxxxxxxxx |xxxxxxxxxxxxx |       0.8047 |       0.8047 |       0.8047 |xxxxxxxxxxxxx |xxxxxxxxxxxxx |xxxxxxxxxxxxx |xxxxxxxxxxxxx |       0.7944 |       0.7944 |       0.7944 |xxxxxxxxxxxxx |xxxxxxxxxxxxx |xxxxxxxxxxxxx |xxxxxxxxxxxxx |       0.7993 |       0.7993 |       0.7993 |xxxxxxxxxxxxx |xxxxxxxxxxxxx |xxxxxxxxxxxxx |xxxxxxxxxxxxx |       0.7901 |       0.7902 |       0.7902 |xxxxxxxxxxxxx |xxxxxxxxxxxxx |xxxxxxxxxxxxx |xxxxxxxxxxxxx |       0.7948 |       0.7949 |       0.7949 |xxxxxxxxxxxxx |xxxxxxxxxxxxx |xxxxxxxxxxxxx |xxxxxxxxxxxxx |       0.7867 |       0.7867 |       0.7867 |xxxxxxxxxxxxx |xxxxxxxxxxxxx |xxxxxxxxxxxxx |xxxxxxxxxxxxx |       0.7912 |       0.7912 |       0.7912 |xxxxxxxxxxxxx |xxxxxxxxxxxxx |xxxxxxxxxxxxx |xxxxxxxxxxxxx |       0.7839 |       0.7839 |       0.7839 |
bpred_bimod.bpred_jr_rate                   0.9999 |       0.9999 |       0.9999 |xxxxxxxxxxxxx |xxxxxxxxxxxxx |xxxxxxxxxxxxx |xxxxxxxxxxxxx |       0.9999 |       0.9999 |       0.9999 |xxxxxxxxxxxxx |xxxxxxxxxxxxx |xxxxxxxxxxxxx |xxxxxxxxxxxxx |       1.0000 |       1.0000 |       1.0000 |xxxxxxxxxxxxx |xxxxxxxxxxxxx |xxxxxxxxxxxxx |xxxxxxxxxxxxx |       1.0000 |       1.0000 |       1.0000 |xxxxxxxxxxxxx |xxxxxxxxxxxxx |xxxxxxxxxxxxx |xxxxxxxxxxxxx |       1.0000 |       1.0000 |       1.0000 |xxxxxxxxxxxxx |xxxxxxxxxxxxx |xxxxxxxxxxxxx |xxxxxxxxxxxxx |       1.0000 |       1.0000 |       1.0000 |xxxxxxxxxxxxx |xxxxxxxxxxxxx |xxxxxxxxxxxxx |xxxxxxxxxxxxx |       1.0000 |       1.0000 |       1.0000 |xxxxxxxxxxxxx |xxxxxxxxxxxxx |xxxxxxxxxxxxx |xxxxxxxxxxxxx |       1.0000 |       1.0000 |       1.0000 |xxxxxxxxxxxxx |xxxxxxxxxxxxx |xxxxxxxxxxxxx |xxxxxxxxxxxxx |       1.0000 |       1.0000 |       1.0000 |xxxxxxxxxxxxx |xxxxxxxxxxxxx |xxxxxxxxxxxxx |xxxxxxxxxxxxx |       1.0000 |       1.0000 |       1.0000 |xxxxxxxxxxxxx |xxxxxxxxxxxxx |xxxxxxxxxxxxx |xxxxxxxxxxxxx |       1.0000 |       1.0000 |       1.0000 |
bpred_bimod.bpred_jr_non_ras_rate.PP       <error: |      <error: |      <error: |xxxxxxxxxxxxx |xxxxxxxxxxxxx |xxxxxxxxxxxxx |xxxxxxxxxxxxx |      <error: |      <error: |      <error: |xxxxxxxxxxxxx |xxxxxxxxxxxxx |xxxxxxxxxxxxx |xxxxxxxxxxxxx |      <error: |      <error: |      <error: |xxxxxxxxxxxxx |xxxxxxxxxxxxx |xxxxxxxxxxxxx |xxxxxxxxxxxxx |      <error: |      <error: |      <error: |xxxxxxxxxxxxx |xxxxxxxxxxxxx |xxxxxxxxxxxxx |xxxxxxxxxxxxx |      <error: |      <error: |      <error: |xxxxxxxxxxxxx |xxxxxxxxxxxxx |xxxxxxxxxxxxx |xxxxxxxxxxxxx |      <error: |      <error: |      <error: |xxxxxxxxxxxxx |xxxxxxxxxxxxx |xxxxxxxxxxxxx |xxxxxxxxxxxxx |      <error: |      <error: |      <error: |xxxxxxxxxxxxx |xxxxxxxxxxxxx |xxxxxxxxxxxxx |xxxxxxxxxxxxx |       0.0000 |       0.0000 |       0.0000 |xxxxxxxxxxxxx |xxxxxxxxxxxxx |xxxxxxxxxxxxx |xxxxxxxxxxxxx |       0.0000 |       0.0000 |       0.0000 |xxxxxxxxxxxxx |xxxxxxxxxxxxx |xxxxxxxxxxxxx |xxxxxxxxxxxxx |       0.0000 |       0.0000 |       0.0000 |xxxxxxxxxxxxx |xxxxxxxxxxxxx |xxxxxxxxxxxxx |xxxxxxxxxxxxx |       0.0000 |       0.0000 |       0.0000 |
bpred_bimod.retstack_pushes                   8574 |         8574 |         8574 |xxxxxxxxxxxxx |xxxxxxxxxxxxx |xxxxxxxxxxxxx |xxxxxxxxxxxxx |        16770 |        16770 |        16770 |xxxxxxxxxxxxx |xxxxxxxxxxxxx |xxxxxxxxxxxxx |xxxxxxxxxxxxx |        33162 |        33162 |        33162 |xxxxxxxxxxxxx |xxxxxxxxxxxxx |xxxxxxxxxxxxx |xxxxxxxxxxxxx |        65946 |        65946 |        65946 |xxxxxxxxxxxxx |xxxxxxxxxxxxx |xxxxxxxxxxxxx |xxxxxxxxxxxxx |       131514 |       131514 |       131514 |xxxxxxxxxxxxx |xxxxxxxxxxxxx |xxxxxxxxxxxxx |xxxxxxxxxxxxx |       262650 |       262650 |       262650 |xxxxxxxxxxxxx |xxxxxxxxxxxxx |xxxxxxxxxxxxx |xxxxxxxxxxxxx |       524922 |       524922 |       524922 |xxxxxxxxxxxxx |xxxxxxxxxxxxx |xxxxxxxxxxxxx |xxxxxxxxxxxxx |      1049470 |      1049470 |      1049470 |xxxxxxxxxxxxx |xxxxxxxxxxxxx |xxxxxxxxxxxxx |xxxxxxxxxxxxx |      2098560 |      2098560 |      2098560 |xxxxxxxxxxxxx |xxxxxxxxxxxxx |xxxxxxxxxxxxx |xxxxxxxxxxxxx |      4196740 |      4196740 |      4196740 |xxxxxxxxxxxxx |xxxxxxxxxxxxx |xxxxxxxxxxxxx |xxxxxxxxxxxxx |      8393100 |      8393100 |      8393100 |
bpred_bimod.retstack_pops                     8572 |         8572 |         8572 |xxxxxxxxxxxxx |xxxxxxxxxxxxx |xxxxxxxxxxxxx |xxxxxxxxxxxxx |        16768 |        16768 |        16768 |xxxxxxxxxxxxx |xxxxxxxxxxxxx |xxxxxxxxxxxxx |xxxxxxxxxxxxx |        33160 |        33160 |        33160 |xxxxxxxxxxxxx |xxxxxxxxxxxxx |xxxxxxxxxxxxx |xxxxxxxxxxxxx |        65944 |        65944 |        65944 |xxxxxxxxxxxxx |xxxxxxxxxxxxx |xxxxxxxxxxxxx |xxxxxxxxxxxxx |       131512 |       131512 |       131512 |xxxxxxxxxxxxx |xxxxxxxxxxxxx |xxxxxxxxxxxxx |xxxxxxxxxxxxx |       262648 |       262648 |       262648 |xxxxxxxxxxxxx |xxxxxxxxxxxxx |xxxxxxxxxxxxx |xxxxxxxxxxxxx |       524920 |       524920 |       524920 |xxxxxxxxxxxxx |xxxxxxxxxxxxx |xxxxxxxxxxxxx |xxxxxxxxxxxxx |      1049468 |      1049468 |      1049468 |xxxxxxxxxxxxx |xxxxxxxxxxxxx |xxxxxxxxxxxxx |xxxxxxxxxxxxx |      2098558 |      2098558 |      2098558 |xxxxxxxxxxxxx |xxxxxxxxxxxxx |xxxxxxxxxxxxx |xxxxxxxxxxxxx |      4196738 |      4196738 |      4196738 |xxxxxxxxxxxxx |xxxxxxxxxxxxx |xxxxxxxxxxxxx |xxxxxxxxxxxxx |      8393098 |      8393098 |      8393098 |
bpred_bimod.used_ras.PP                       8572 |         8572 |         8572 |xxxxxxxxxxxxx |xxxxxxxxxxxxx |xxxxxxxxxxxxx |xxxxxxxxxxxxx |        16768 |        16768 |        16768 |xxxxxxxxxxxxx |xxxxxxxxxxxxx |xxxxxxxxxxxxx |xxxxxxxxxxxxx |        33160 |        33160 |        33160 |xxxxxxxxxxxxx |xxxxxxxxxxxxx |xxxxxxxxxxxxx |xxxxxxxxxxxxx |        65944 |        65944 |        65944 |xxxxxxxxxxxxx |xxxxxxxxxxxxx |xxxxxxxxxxxxx |xxxxxxxxxxxxx |       131512 |       131512 |       131512 |xxxxxxxxxxxxx |xxxxxxxxxxxxx |xxxxxxxxxxxxx |xxxxxxxxxxxxx |       262648 |       262648 |       262648 |xxxxxxxxxxxxx |xxxxxxxxxxxxx |xxxxxxxxxxxxx |xxxxxxxxxxxxx |       524920 |       524920 |       524920 |xxxxxxxxxxxxx |xxxxxxxxxxxxx |xxxxxxxxxxxxx |xxxxxxxxxxxxx |      1049468 |      1049468 |      1049468 |xxxxxxxxxxxxx |xxxxxxxxxxxxx |xxxxxxxxxxxxx |xxxxxxxxxxxxx |      2098558 |      2098558 |      2098558 |xxxxxxxxxxxxx |xxxxxxxxxxxxx |xxxxxxxxxxxxx |xxxxxxxxxxxxx |      4196738 |      4196738 |      4196738 |xxxxxxxxxxxxx |xxxxxxxxxxxxx |xxxxxxxxxxxxx |xxxxxxxxxxxxx |      8393098 |      8393098 |      8393098 |
bpred_bimod.ras_hits.PP                       8571 |         8571 |         8571 |xxxxxxxxxxxxx |xxxxxxxxxxxxx |xxxxxxxxxxxxx |xxxxxxxxxxxxx |        16767 |        16767 |        16767 |xxxxxxxxxxxxx |xxxxxxxxxxxxx |xxxxxxxxxxxxx |xxxxxxxxxxxxx |        33159 |        33159 |        33159 |xxxxxxxxxxxxx |xxxxxxxxxxxxx |xxxxxxxxxxxxx |xxxxxxxxxxxxx |        65943 |        65943 |        65943 |xxxxxxxxxxxxx |xxxxxxxxxxxxx |xxxxxxxxxxxxx |xxxxxxxxxxxxx |       131511 |       131511 |       131511 |xxxxxxxxxxxxx |xxxxxxxxxxxxx |xxxxxxxxxxxxx |xxxxxxxxxxxxx |       262647 |       262647 |       262647 |xxxxxxxxxxxxx |xxxxxxxxxxxxx |xxxxxxxxxxxxx |xxxxxxxxxxxxx |       524919 |       524919 |       524919 |xxxxxxxxxxxxx |xxxxxxxxxxxxx |xxxxxxxxxxxxx |xxxxxxxxxxxxx |      1049468 |      1049468 |      1049468 |xxxxxxxxxxxxx |xxxxxxxxxxxxx |xxxxxxxxxxxxx |xxxxxxxxxxxxx |      2098558 |      2098558 |      2098558 |xxxxxxxxxxxxx |xxxxxxxxxxxxx |xxxxxxxxxxxxx |xxxxxxxxxxxxx |      4196738 |      4196738 |      4196738 |xxxxxxxxxxxxx |xxxxxxxxxxxxx |xxxxxxxxxxxxx |xxxxxxxxxxxxx |      8393098 |      8393098 |      8393098 |
bpred_bimod.ras_rate.PP                     0.9999 |       0.9999 |       0.9999 |xxxxxxxxxxxxx |xxxxxxxxxxxxx |xxxxxxxxxxxxx |xxxxxxxxxxxxx |       0.9999 |       0.9999 |       0.9999 |xxxxxxxxxxxxx |xxxxxxxxxxxxx |xxxxxxxxxxxxx |xxxxxxxxxxxxx |       1.0000 |       1.0000 |       1.0000 |xxxxxxxxxxxxx |xxxxxxxxxxxxx |xxxxxxxxxxxxx |xxxxxxxxxxxxx |       1.0000 |       1.0000 |       1.0000 |xxxxxxxxxxxxx |xxxxxxxxxxxxx |xxxxxxxxxxxxx |xxxxxxxxxxxxx |       1.0000 |       1.0000 |       1.0000 |xxxxxxxxxxxxx |xxxxxxxxxxxxx |xxxxxxxxxxxxx |xxxxxxxxxxxxx |       1.0000 |       1.0000 |       1.0000 |xxxxxxxxxxxxx |xxxxxxxxxxxxx |xxxxxxxxxxxxx |xxxxxxxxxxxxx |       1.0000 |       1.0000 |       1.0000 |xxxxxxxxxxxxx |xxxxxxxxxxxxx |xxxxxxxxxxxxx |xxxxxxxxxxxxx |       1.0000 |       1.0000 |       1.0000 |xxxxxxxxxxxxx |xxxxxxxxxxxxx |xxxxxxxxxxxxx |xxxxxxxxxxxxx |       1.0000 |       1.0000 |       1.0000 |xxxxxxxxxxxxx |xxxxxxxxxxxxx |xxxxxxxxxxxxx |xxxxxxxxxxxxx |       1.0000 |       1.0000 |       1.0000 |xxxxxxxxxxxxx |xxxxxxxxxxxxx |xxxxxxxxxxxxx |xxxxxxxxxxxxx |       1.0000 |       1.0000 |       1.0000 |
bpred_2lev.lookups                   xxxxxxxxxxxxx |xxxxxxxxxxxxx |xxxxxxxxxxxxx |       133646 |       133646 |       133646 |       133646 |xxxxxxxxxxxxx |xxxxxxxxxxxxx |xxxxxxxxxxxxx |       276717 |       276717 |       276717 |       276717 |xxxxxxxxxxxxx |xxxxxxxxxxxxx |xxxxxxxxxxxxx |       592328 |       592328 |       592328 |       592328 |xxxxxxxxxxxxx |xxxxxxxxxxxxx |xxxxxxxxxxxxx |      1229091 |      1229091 |      1229091 |      1229091 |xxxxxxxxxxxxx |xxxxxxxxxxxxx |xxxxxxxxxxxxx |      2623472 |      2623472 |      2623472 |      2623472 |xxxxxxxxxxxxx |xxxxxxxxxxxxx |xxxxxxxxxxxxx |      5437964 |      5437964 |      5437964 |      5437964 |xxxxxxxxxxxxx |xxxxxxxxxxxxx |xxxxxxxxxxxxx |     11542081 |     11542081 |     11542081 |     11542081 |xxxxxxxxxxxxx |xxxxxxxxxxxxx |xxxxxxxxxxxxx |     23840581 |     23840581 |     23840581 |     23840581 |xxxxxxxxxxxxx |xxxxxxxxxxxxx |xxxxxxxxxxxxx |     50355144 |     50355144 |     50355144 |     50355144 |xxxxxxxxxxxxx |xxxxxxxxxxxxx |xxxxxxxxxxxxx |    103752597 |    103752597 |    103752597 |    103752597 |xxxxxxxxxxxxx |xxxxxxxxxxxxx |xxxxxxxxxxxxx |    218217668 |    218217668 |    218217668 |    218217668 |
[...]
bpred_2lev.retstack_pops             xxxxxxxxxxxxx |xxxxxxxxxxxxx |xxxxxxxxxxxxx |         8572 |         8572 |         8572 |         8572 |xxxxxxxxxxxxx |xxxxxxxxxxxxx |xxxxxxxxxxxxx |        16768 |        16768 |        16768 |        16768 |xxxxxxxxxxxxx |xxxxxxxxxxxxx |xxxxxxxxxxxxx |        33160 |        33160 |        33160 |        33160 |xxxxxxxxxxxxx |xxxxxxxxxxxxx |xxxxxxxxxxxxx |        65944 |        65944 |        65944 |        65944 |xxxxxxxxxxxxx |xxxxxxxxxxxxx |xxxxxxxxxxxxx |       131512 |       131512 |       131512 |       131512 |xxxxxxxxxxxxx |xxxxxxxxxxxxx |xxxxxxxxxxxxx |       262648 |       262648 |       262648 |       262648 |xxxxxxxxxxxxx |xxxxxxxxxxxxx |xxxxxxxxxxxxx |       524920 |       524920 |       524920 |       524920 |xxxxxxxxxxxxx |xxxxxxxxxxxxx |xxxxxxxxxxxxx |      1049468 |      1049468 |      1049468 |      1049468 |xxxxxxxxxxxxx |xxxxxxxxxxxxx |xxxxxxxxxxxxx |      2098558 |      2098558 |      2098558 |      2098558 |xxxxxxxxxxxxx |xxxxxxxxxxxxx |xxxxxxxxxxxxx |      4196738 |      4196738 |      4196738 |      4196738 |xxxxxxxxxxxxx |xxxxxxxxxxxxx |xxxxxxxxxxxxx |      8393098 |      8393098 |      8393098 |      8393098 |
bpred_2lev.used_ras.PP               xxxxxxxxxxxxx |xxxxxxxxxxxxx |xxxxxxxxxxxxx |         8572 |         8572 |         8572 |         8572 |xxxxxxxxxxxxx |xxxxxxxxxxxxx |xxxxxxxxxxxxx |        16768 |        16768 |        16768 |        16768 |xxxxxxxxxxxxx |xxxxxxxxxxxxx |xxxxxxxxxxxxx |        33160 |        33160 |        33160 |        33160 |xxxxxxxxxxxxx |xxxxxxxxxxxxx |xxxxxxxxxxxxx |        65944 |        65944 |        65944 |        65944 |xxxxxxxxxxxxx |xxxxxxxxxxxxx |xxxxxxxxxxxxx |       131512 |       131512 |       131512 |       131512 |xxxxxxxxxxxxx |xxxxxxxxxxxxx |xxxxxxxxxxxxx |       262648 |       262648 |       262648 |       262648 |xxxxxxxxxxxxx |xxxxxxxxxxxxx |xxxxxxxxxxxxx |       524920 |       524920 |       524920 |       524920 |xxxxxxxxxxxxx |xxxxxxxxxxxxx |xxxxxxxxxxxxx |      1049468 |      1049468 |      1049468 |      1049468 |xxxxxxxxxxxxx |xxxxxxxxxxxxx |xxxxxxxxxxxxx |      2098558 |      2098558 |      2098558 |      2098558 |xxxxxxxxxxxxx |xxxxxxxxxxxxx |xxxxxxxxxxxxx |      4196738 |      4196738 |      4196738 |      4196738 |xxxxxxxxxxxxx |xxxxxxxxxxxxx |xxxxxxxxxxxxx |      8393098 |      8393098 |      8393098 |      8393098 |
bpred_2lev.ras_hits.PP               xxxxxxxxxxxxx |xxxxxxxxxxxxx |xxxxxxxxxxxxx |         8571 |         8571 |         8571 |         8571 |xxxxxxxxxxxxx |xxxxxxxxxxxxx |xxxxxxxxxxxxx |        16767 |        16767 |        16767 |        16767 |xxxxxxxxxxxxx |xxxxxxxxxxxxx |xxxxxxxxxxxxx |        33159 |        33159 |        33159 |        33159 |xxxxxxxxxxxxx |xxxxxxxxxxxxx |xxxxxxxxxxxxx |        65943 |        65943 |        65943 |        65943 |xxxxxxxxxxxxx |xxxxxxxxxxxxx |xxxxxxxxxxxxx |       131511 |       131511 |       131511 |       131511 |xxxxxxxxxxxxx |xxxxxxxxxxxxx |xxxxxxxxxxxxx |       262647 |       262647 |       262647 |       262647 |xxxxxxxxxxxxx |xxxxxxxxxxxxx |xxxxxxxxxxxxx |       524919 |       524919 |       524919 |       524919 |xxxxxxxxxxxxx |xxxxxxxxxxxxx |xxxxxxxxxxxxx |      1049468 |      1049468 |      1049468 |      1049468 |xxxxxxxxxxxxx |xxxxxxxxxxxxx |xxxxxxxxxxxxx |      2098558 |      2098558 |      2098558 |      2098558 |xxxxxxxxxxxxx |xxxxxxxxxxxxx |xxxxxxxxxxxxx |      4196738 |      4196738 |      4196738 |      4196738 |xxxxxxxxxxxxx |xxxxxxxxxxxxx |xxxxxxxxxxxxx |      8393098 |      8393098 |      8393098 |      8393098 |
bpred_2lev.ras_rate.PP               xxxxxxxxxxxxx |xxxxxxxxxxxxx |xxxxxxxxxxxxx |       0.9999 |       0.9999 |       0.9999 |       0.9999 |xxxxxxxxxxxxx |xxxxxxxxxxxxx |xxxxxxxxxxxxx |       0.9999 |       0.9999 |       0.9999 |       0.9999 |xxxxxxxxxxxxx |xxxxxxxxxxxxx |xxxxxxxxxxxxx |       1.0000 |       1.0000 |       1.0000 |       1.0000 |xxxxxxxxxxxxx |xxxxxxxxxxxxx |xxxxxxxxxxxxx |       1.0000 |       1.0000 |       1.0000 |       1.0000 |xxxxxxxxxxxxx |xxxxxxxxxxxxx |xxxxxxxxxxxxx |       1.0000 |       1.0000 |       1.0000 |       1.0000 |xxxxxxxxxxxxx |xxxxxxxxxxxxx |xxxxxxxxxxxxx |       1.0000 |       1.0000 |       1.0000 |       1.0000 |xxxxxxxxxxxxx |xxxxxxxxxxxxx |xxxxxxxxxxxxx |       1.0000 |       1.0000 |       1.0000 |       1.0000 |xxxxxxxxxxxxx |xxxxxxxxxxxxx |xxxxxxxxxxxxx |       1.0000 |       1.0000 |       1.0000 |       1.0000 |xxxxxxxxxxxxx |xxxxxxxxxxxxx |xxxxxxxxxxxxx |       1.0000 |       1.0000 |       1.0000 |       1.0000 |xxxxxxxxxxxxx |xxxxxxxxxxxxx |xxxxxxxxxxxxx |       1.0000 |       1.0000 |       1.0000 |       1.0000 |xxxxxxxxxxxxx |xxxxxxxxxxxxx |xxxxxxxxxxxxx |       1.0000 |       1.0000 |       1.0000 |       1.0000 |

Command list: 
	sslittle-na-sstrix-gcc -Wall -O3 -funroll-loops -finline-functions  -DRANDOM_SIZE=4096 -DSEED=0 -DSORT=double_tiled_mergesort double_tiled_mergesort1246892637.c simpleMain.c -o double_tiled_mergesort1382759610
	sim-cache -cache:dl1 dl1:256:32:1:l -cache:dl2 dl2:131072:32:1:l -cache:il1 il1:256:32:1:l -cache:il2 dl2 double_tiled_mergesort1382759610
	sim-cache -cache:dl1 dl1:256:32:1:l -cache:dl2 dl2:65536:32:1:l -cache:il1 il1:256:32:1:l -cache:il2 dl2 double_tiled_mergesort1382759610
	sim-cache -cache:dl1 dl1:1:32:256:l -cache:dl2 dl2:1:32:131072:l -cache:il1 il1:1:32:256:l -cache:il2 dl2 double_tiled_mergesort1382759610
	sim-cache -cache:dl1 dl1:1:32:256:l -cache:dl2 dl2:1:32:65536:l -cache:il1 il1:1:32:256:l -cache:il2 dl2 double_tiled_mergesort1382759610
	sim-bpred -bpred bimod -bpred:bimod 512 double_tiled_mergesort1382759610
	sim-bpred -bpred bimod -bpred:bimod 1024 double_tiled_mergesort1382759610
	sim-bpred -bpred bimod -bpred:bimod 2048 double_tiled_mergesort1382759610
	sim-bpred -bpred 2lev -bpred:2lev 1 512 10 1 double_tiled_mergesort1382759610
	sim-bpred -bpred 2lev -bpred:2lev 1 1024 10 1 double_tiled_mergesort1382759610
	sim-bpred -bpred 2lev -bpred:2lev 1 2048 10 1 double_tiled_mergesort1382759610
	sim-bpred -bpred 2lev -bpred:2lev 1 4096 10 1 double_tiled_mergesort1382759610
	sslittle-na-sstrix-gcc -Wall -O3 -funroll-loops -finline-functions  -DRANDOM_SIZE=8192 -DSEED=0 -DSORT=double_tiled_mergesort double_tiled_mergesort1246892637.c simpleMain.c -o double_tiled_mergesort1382759610
	sim-cache -cache:dl1 dl1:256:32:1:l -cache:dl2 dl2:131072:32:1:l -cache:il1 il1:256:32:1:l -cache:il2 dl2 double_tiled_mergesort1382759610
	sim-cache -cache:dl1 dl1:256:32:1:l -cache:dl2 dl2:65536:32:1:l -cache:il1 il1:256:32:1:l -cache:il2 dl2 double_tiled_mergesort1382759610
	sim-cache -cache:dl1 dl1:1:32:256:l -cache:dl2 dl2:1:32:131072:l -cache:il1 il1:1:32:256:l -cache:il2 dl2 double_tiled_mergesort1382759610
	sim-cache -cache:dl1 dl1:1:32:256:l -cache:dl2 dl2:1:32:65536:l -cache:il1 il1:1:32:256:l -cache:il2 dl2 double_tiled_mergesort1382759610
	sim-bpred -bpred bimod -bpred:bimod 512 double_tiled_mergesort1382759610
	sim-bpred -bpred bimod -bpred:bimod 1024 double_tiled_mergesort1382759610
	sim-bpred -bpred bimod -bpred:bimod 2048 double_tiled_mergesort1382759610
	sim-bpred -bpred 2lev -bpred:2lev 1 512 10 1 double_tiled_mergesort1382759610
	sim-bpred -bpred 2lev -bpred:2lev 1 1024 10 1 double_tiled_mergesort1382759610
	sim-bpred -bpred 2lev -bpred:2lev 1 2048 10 1 double_tiled_mergesort1382759610
	sim-bpred -bpred 2lev -bpred:2lev 1 4096 10 1 double_tiled_mergesort1382759610
	sslittle-na-sstrix-gcc -Wall -O3 -funroll-loops -finline-functions  -DRANDOM_SIZE=16384 -DSEED=0 -DSORT=double_tiled_mergesort double_tiled_mergesort1246892637.c simpleMain.c -o double_tiled_mergesort1382759610
	sim-cache -cache:dl1 dl1:256:32:1:l -cache:dl2 dl2:131072:32:1:l -cache:il1 il1:256:32:1:l -cache:il2 dl2 double_tiled_mergesort1382759610
	sim-cache -cache:dl1 dl1:256:32:1:l -cache:dl2 dl2:65536:32:1:l -cache:il1 il1:256:32:1:l -cache:il2 dl2 double_tiled_mergesort1382759610
	sim-cache -cache:dl1 dl1:1:32:256:l -cache:dl2 dl2:1:32:131072:l -cache:il1 il1:1:32:256:l -cache:il2 dl2 double_tiled_mergesort1382759610
	sim-cache -cache:dl1 dl1:1:32:256:l -cache:dl2 dl2:1:32:65536:l -cache:il1 il1:1:32:256:l -cache:il2 dl2 double_tiled_mergesort1382759610
	sim-bpred -bpred bimod -bpred:bimod 512 double_tiled_mergesort1382759610
	sim-bpred -bpred bimod -bpred:bimod 1024 double_tiled_mergesort1382759610
	sim-bpred -bpred bimod -bpred:bimod 2048 double_tiled_mergesort1382759610
	sim-bpred -bpred 2lev -bpred:2lev 1 512 10 1 double_tiled_mergesort1382759610
	sim-bpred -bpred 2lev -bpred:2lev 1 1024 10 1 double_tiled_mergesort1382759610
	sim-bpred -bpred 2lev -bpred:2lev 1 2048 10 1 double_tiled_mergesort1382759610
	sim-bpred -bpred 2lev -bpred:2lev 1 4096 10 1 double_tiled_mergesort1382759610
	sslittle-na-sstrix-gcc -Wall -O3 -funroll-loops -finline-functions  -DRANDOM_SIZE=32768 -DSEED=0 -DSORT=double_tiled_mergesort double_tiled_mergesort1246892637.c simpleMain.c -o double_tiled_mergesort1382759610
	sim-cache -cache:dl1 dl1:256:32:1:l -cache:dl2 dl2:131072:32:1:l -cache:il1 il1:256:32:1:l -cache:il2 dl2 double_tiled_mergesort1382759610
	sim-cache -cache:dl1 dl1:256:32:1:l -cache:dl2 dl2:65536:32:1:l -cache:il1 il1:256:32:1:l -cache:il2 dl2 double_tiled_mergesort1382759610
	sim-cache -cache:dl1 dl1:1:32:256:l -cache:dl2 dl2:1:32:131072:l -cache:il1 il1:1:32:256:l -cache:il2 dl2 double_tiled_mergesort1382759610
	sim-cache -cache:dl1 dl1:1:32:256:l -cache:dl2 dl2:1:32:65536:l -cache:il1 il1:1:32:256:l -cache:il2 dl2 double_tiled_mergesort1382759610
	sim-bpred -bpred bimod -bpred:bimod 512 double_tiled_mergesort1382759610
	sim-bpred -bpred bimod -bpred:bimod 1024 double_tiled_mergesort1382759610
	sim-bpred -bpred bimod -bpred:bimod 2048 double_tiled_mergesort1382759610
	sim-bpred -bpred 2lev -bpred:2lev 1 512 10 1 double_tiled_mergesort1382759610
	sim-bpred -bpred 2lev -bpred:2lev 1 1024 10 1 double_tiled_mergesort1382759610
	sim-bpred -bpred 2lev -bpred:2lev 1 2048 10 1 double_tiled_mergesort1382759610
	sim-bpred -bpred 2lev -bpred:2lev 1 4096 10 1 double_tiled_mergesort1382759610
	sslittle-na-sstrix-gcc -Wall -O3 -funroll-loops -finline-functions  -DRANDOM_SIZE=65536 -DSEED=0 -DSORT=double_tiled_mergesort double_tiled_mergesort1246892637.c simpleMain.c -o double_tiled_mergesort1382759610
	sim-cache -cache:dl1 dl1:256:32:1:l -cache:dl2 dl2:131072:32:1:l -cache:il1 il1:256:32:1:l -cache:il2 dl2 double_tiled_mergesort1382759610
	sim-cache -cache:dl1 dl1:256:32:1:l -cache:dl2 dl2:65536:32:1:l -cache:il1 il1:256:32:1:l -cache:il2 dl2 double_tiled_mergesort1382759610
	sim-cache -cache:dl1 dl1:1:32:256:l -cache:dl2 dl2:1:32:131072:l -cache:il1 il1:1:32:256:l -cache:il2 dl2 double_tiled_mergesort1382759610
	sim-cache -cache:dl1 dl1:1:32:256:l -cache:dl2 dl2:1:32:65536:l -cache:il1 il1:1:32:256:l -cache:il2 dl2 double_tiled_mergesort1382759610
	sim-bpred -bpred bimod -bpred:bimod 512 double_tiled_mergesort1382759610
	sim-bpred -bpred bimod -bpred:bimod 1024 double_tiled_mergesort1382759610
	sim-bpred -bpred bimod -bpred:bimod 2048 double_tiled_mergesort1382759610
	sim-bpred -bpred 2lev -bpred:2lev 1 512 10 1 double_tiled_mergesort1382759610
	sim-bpred -bpred 2lev -bpred:2lev 1 1024 10 1 double_tiled_mergesort1382759610
	sim-bpred -bpred 2lev -bpred:2lev 1 2048 10 1 double_tiled_mergesort1382759610
	sim-bpred -bpred 2lev -bpred:2lev 1 4096 10 1 double_tiled_mergesort1382759610
	sslittle-na-sstrix-gcc -Wall -O3 -funroll-loops -finline-functions  -DRANDOM_SIZE=131072 -DSEED=0 -DSORT=double_tiled_mergesort double_tiled_mergesort1246892637.c simpleMain.c -o double_tiled_mergesort1382759610
	sim-cache -cache:dl1 dl1:256:32:1:l -cache:dl2 dl2:131072:32:1:l -cache:il1 il1:256:32:1:l -cache:il2 dl2 double_tiled_mergesort1382759610
	sim-cache -cache:dl1 dl1:256:32:1:l -cache:dl2 dl2:65536:32:1:l -cache:il1 il1:256:32:1:l -cache:il2 dl2 double_tiled_mergesort1382759610
	sim-cache -cache:dl1 dl1:1:32:256:l -cache:dl2 dl2:1:32:131072:l -cache:il1 il1:1:32:256:l -cache:il2 dl2 double_tiled_mergesort1382759610
	sim-cache -cache:dl1 dl1:1:32:256:l -cache:dl2 dl2:1:32:65536:l -cache:il1 il1:1:32:256:l -cache:il2 dl2 double_tiled_mergesort1382759610
	sim-bpred -bpred bimod -bpred:bimod 512 double_tiled_mergesort1382759610
	sim-bpred -bpred bimod -bpred:bimod 1024 double_tiled_mergesort1382759610
	sim-bpred -bpred bimod -bpred:bimod 2048 double_tiled_mergesort1382759610
	sim-bpred -bpred 2lev -bpred:2lev 1 512 10 1 double_tiled_mergesort1382759610
	sim-bpred -bpred 2lev -bpred:2lev 1 1024 10 1 double_tiled_mergesort1382759610
	sim-bpred -bpred 2lev -bpred:2lev 1 2048 10 1 double_tiled_mergesort1382759610
	sim-bpred -bpred 2lev -bpred:2lev 1 4096 10 1 double_tiled_mergesort1382759610
	sslittle-na-sstrix-gcc -Wall -O3 -funroll-loops -finline-functions  -DRANDOM_SIZE=262144 -DSEED=0 -DSORT=double_tiled_mergesort double_tiled_mergesort1246892637.c simpleMain.c -o double_tiled_mergesort1382759610
	sim-cache -cache:dl1 dl1:256:32:1:l -cache:dl2 dl2:131072:32:1:l -cache:il1 il1:256:32:1:l -cache:il2 dl2 double_tiled_mergesort1382759610
	sim-cache -cache:dl1 dl1:256:32:1:l -cache:dl2 dl2:65536:32:1:l -cache:il1 il1:256:32:1:l -cache:il2 dl2 double_tiled_mergesort1382759610
	sim-cache -cache:dl1 dl1:1:32:256:l -cache:dl2 dl2:1:32:131072:l -cache:il1 il1:1:32:256:l -cache:il2 dl2 double_tiled_mergesort1382759610
	sim-cache -cache:dl1 dl1:1:32:256:l -cache:dl2 dl2:1:32:65536:l -cache:il1 il1:1:32:256:l -cache:il2 dl2 double_tiled_mergesort1382759610
	sim-bpred -bpred bimod -bpred:bimod 512 double_tiled_mergesort1382759610
	sim-bpred -bpred bimod -bpred:bimod 1024 double_tiled_mergesort1382759610
	sim-bpred -bpred bimod -bpred:bimod 2048 double_tiled_mergesort1382759610
	sim-bpred -bpred 2lev -bpred:2lev 1 512 10 1 double_tiled_mergesort1382759610
	sim-bpred -bpred 2lev -bpred:2lev 1 1024 10 1 double_tiled_mergesort1382759610
	sim-bpred -bpred 2lev -bpred:2lev 1 2048 10 1 double_tiled_mergesort1382759610
	sim-bpred -bpred 2lev -bpred:2lev 1 4096 10 1 double_tiled_mergesort1382759610
	sslittle-na-sstrix-gcc -Wall -O3 -funroll-loops -finline-functions  -DRANDOM_SIZE=524288 -DSEED=0 -DSORT=double_tiled_mergesort double_tiled_mergesort1246892637.c simpleMain.c -o double_tiled_mergesort1382759610
	sim-cache -cache:dl1 dl1:256:32:1:l -cache:dl2 dl2:131072:32:1:l -cache:il1 il1:256:32:1:l -cache:il2 dl2 double_tiled_mergesort1382759610
	sim-cache -cache:dl1 dl1:256:32:1:l -cache:dl2 dl2:65536:32:1:l -cache:il1 il1:256:32:1:l -cache:il2 dl2 double_tiled_mergesort1382759610
	sim-cache -cache:dl1 dl1:1:32:256:l -cache:dl2 dl2:1:32:131072:l -cache:il1 il1:1:32:256:l -cache:il2 dl2 double_tiled_mergesort1382759610
	sim-cache -cache:dl1 dl1:1:32:256:l -cache:dl2 dl2:1:32:65536:l -cache:il1 il1:1:32:256:l -cache:il2 dl2 double_tiled_mergesort1382759610
	sim-bpred -bpred bimod -bpred:bimod 512 double_tiled_mergesort1382759610
	sim-bpred -bpred bimod -bpred:bimod 1024 double_tiled_mergesort1382759610
	sim-bpred -bpred bimod -bpred:bimod 2048 double_tiled_mergesort1382759610
	sim-bpred -bpred 2lev -bpred:2lev 1 512 10 1 double_tiled_mergesort1382759610
	sim-bpred -bpred 2lev -bpred:2lev 1 1024 10 1 double_tiled_mergesort1382759610
	sim-bpred -bpred 2lev -bpred:2lev 1 2048 10 1 double_tiled_mergesort1382759610
	sim-bpred -bpred 2lev -bpred:2lev 1 4096 10 1 double_tiled_mergesort1382759610
	sslittle-na-sstrix-gcc -Wall -O3 -funroll-loops -finline-functions  -DRANDOM_SIZE=1048576 -DSEED=0 -DSORT=double_tiled_mergesort double_tiled_mergesort1246892637.c simpleMain.c -o double_tiled_mergesort1382759610
	sim-cache -cache:dl1 dl1:256:32:1:l -cache:dl2 dl2:131072:32:1:l -cache:il1 il1:256:32:1:l -cache:il2 dl2 double_tiled_mergesort1382759610
	sim-cache -cache:dl1 dl1:256:32:1:l -cache:dl2 dl2:65536:32:1:l -cache:il1 il1:256:32:1:l -cache:il2 dl2 double_tiled_mergesort1382759610
	sim-cache -cache:dl1 dl1:1:32:256:l -cache:dl2 dl2:1:32:131072:l -cache:il1 il1:1:32:256:l -cache:il2 dl2 double_tiled_mergesort1382759610
	sim-cache -cache:dl1 dl1:1:32:256:l -cache:dl2 dl2:1:32:65536:l -cache:il1 il1:1:32:256:l -cache:il2 dl2 double_tiled_mergesort1382759610
	sim-bpred -bpred bimod -bpred:bimod 512 double_tiled_mergesort1382759610
	sim-bpred -bpred bimod -bpred:bimod 1024 double_tiled_mergesort1382759610
	sim-bpred -bpred bimod -bpred:bimod 2048 double_tiled_mergesort1382759610
	sim-bpred -bpred 2lev -bpred:2lev 1 512 10 1 double_tiled_mergesort1382759610
	sim-bpred -bpred 2lev -bpred:2lev 1 1024 10 1 double_tiled_mergesort1382759610
	sim-bpred -bpred 2lev -bpred:2lev 1 2048 10 1 double_tiled_mergesort1382759610
	sim-bpred -bpred 2lev -bpred:2lev 1 4096 10 1 double_tiled_mergesort1382759610
	sslittle-na-sstrix-gcc -Wall -O3 -funroll-loops -finline-functions  -DRANDOM_SIZE=2097152 -DSEED=0 -DSORT=double_tiled_mergesort double_tiled_mergesort1246892637.c simpleMain.c -o double_tiled_mergesort1382759610
	sim-cache -cache:dl1 dl1:256:32:1:l -cache:dl2 dl2:131072:32:1:l -cache:il1 il1:256:32:1:l -cache:il2 dl2 double_tiled_mergesort1382759610
	sim-cache -cache:dl1 dl1:256:32:1:l -cache:dl2 dl2:65536:32:1:l -cache:il1 il1:256:32:1:l -cache:il2 dl2 double_tiled_mergesort1382759610
	sim-cache -cache:dl1 dl1:1:32:256:l -cache:dl2 dl2:1:32:131072:l -cache:il1 il1:1:32:256:l -cache:il2 dl2 double_tiled_mergesort1382759610
	sim-cache -cache:dl1 dl1:1:32:256:l -cache:dl2 dl2:1:32:65536:l -cache:il1 il1:1:32:256:l -cache:il2 dl2 double_tiled_mergesort1382759610
	sim-bpred -bpred bimod -bpred:bimod 512 double_tiled_mergesort1382759610
	sim-bpred -bpred bimod -bpred:bimod 1024 double_tiled_mergesort1382759610
	sim-bpred -bpred bimod -bpred:bimod 2048 double_tiled_mergesort1382759610
	sim-bpred -bpred 2lev -bpred:2lev 1 512 10 1 double_tiled_mergesort1382759610
	sim-bpred -bpred 2lev -bpred:2lev 1 1024 10 1 double_tiled_mergesort1382759610
	sim-bpred -bpred 2lev -bpred:2lev 1 2048 10 1 double_tiled_mergesort1382759610
	sim-bpred -bpred 2lev -bpred:2lev 1 4096 10 1 double_tiled_mergesort1382759610
	sslittle-na-sstrix-gcc -Wall -O3 -funroll-loops -finline-functions  -DRANDOM_SIZE=4194304 -DSEED=0 -DSORT=double_tiled_mergesort double_tiled_mergesort1246892637.c simpleMain.c -o double_tiled_mergesort1382759610
	sim-cache -cache:dl1 dl1:256:32:1:l -cache:dl2 dl2:131072:32:1:l -cache:il1 il1:256:32:1:l -cache:il2 dl2 double_tiled_mergesort1382759610
	sim-cache -cache:dl1 dl1:256:32:1:l -cache:dl2 dl2:65536:32:1:l -cache:il1 il1:256:32:1:l -cache:il2 dl2 double_tiled_mergesort1382759610
	sim-cache -cache:dl1 dl1:1:32:256:l -cache:dl2 dl2:1:32:131072:l -cache:il1 il1:1:32:256:l -cache:il2 dl2 double_tiled_mergesort1382759610
	sim-cache -cache:dl1 dl1:1:32:256:l -cache:dl2 dl2:1:32:65536:l -cache:il1 il1:1:32:256:l -cache:il2 dl2 double_tiled_mergesort1382759610
	sim-bpred -bpred bimod -bpred:bimod 512 double_tiled_mergesort1382759610
	sim-bpred -bpred bimod -bpred:bimod 1024 double_tiled_mergesort1382759610
	sim-bpred -bpred bimod -bpred:bimod 2048 double_tiled_mergesort1382759610
	sim-bpred -bpred 2lev -bpred:2lev 1 512 10 1 double_tiled_mergesort1382759610
	sim-bpred -bpred 2lev -bpred:2lev 1 1024 10 1 double_tiled_mergesort1382759610
	sim-bpred -bpred 2lev -bpred:2lev 1 2048 10 1 double_tiled_mergesort1382759610
	sim-bpred -bpred 2lev -bpred:2lev 1 4096 10 1 double_tiled_mergesort1382759610
