Sat Mar 20 23:02:21 2004
Run as: "./simple -c  knuth_base_mergesort"
-------------------------------------------------------------------------------------------------
sim-cache                                     4096 |         4096 |         4096 |         4096 |         8192 |         8192 |         8192 |         8192 |        16384 |        16384 |        16384 |        16384 |        32768 |        32768 |        32768 |        32768 |        65536 |        65536 |        65536 |        65536 |       131072 |       131072 |       131072 |       131072 |       262144 |       262144 |       262144 |       262144 |       524288 |       524288 |       524288 |       524288 |      1048576 |      1048576 |      1048576 |      1048576 |      2097152 |      2097152 |      2097152 |      2097152 |      4194304 |      4194304 |      4194304 |      4194304 |
-cache:dl1 dl1:256:32:1:l -cache:dl2 dl2:131072:32:1:l -cache:il1 il1:256:32:1:l -cache:il2 dl2
-cache:dl1 dl1:256:32:1:l -cache:dl2 dl2:65536:32:1:l -cache:il1 il1:256:32:1:l -cache:il2 dl2
-cache:dl1 dl1:1:32:256:l -cache:dl2 dl2:1:32:131072:l -cache:il1 il1:1:32:256:l -cache:il2 dl2
-cache:dl1 dl1:1:32:256:l -cache:dl2 dl2:1:32:65536:l -cache:il1 il1:1:32:256:l -cache:il2 dl2
-------------------------------------------------------------------------------------------------
sim_num_insn                               1031027 |      1031027 |      1031027 |      1031027 |      2185424 |      2185424 |      2185424 |      2185424 |      4714939 |      4714939 |      4714939 |      4714939 |      9968659 |      9968659 |      9968659 |      9968659 |     21362461 |     21362461 |     21362461 |     21362461 |     44937515 |     44937515 |     44937515 |     44937515 |     95625810 |     95625810 |     95625810 |     95625810 |    200147249 |    200147249 |    200147249 |    200147249 |    423346373 |    423346373 |    423346373 |    423346373 |    882344485 |    882344485 |    882344485 |    882344485 |   1856931267 |   1856931267 |   1856931267 |   1856931267 |
sim_num_refs                                300246 |       300246 |       300246 |       300246 |       617292 |       617292 |       617292 |       617292 |      1341254 |      1341254 |      1341254 |      1341254 |      2772616 |      2772616 |      2772616 |      2772616 |      5996110 |      5996110 |      5996110 |      5996110 |     12377728 |     12377728 |     12377728 |     12377728 |     26582930 |     26582930 |     26582930 |     26582930 |     54730158 |     54730158 |     54730158 |     54730158 |    116799523 |    116799523 |    116799523 |    116799523 |    239883645 |    239883645 |    239883645 |    239883645 |    509111974 |    509111974 |    509111974 |    509111974 |
sim_elapsed_time                                 1 |            1 |            9 |            5 |            1 |            1 |           15 |            7 |            1 |            1 |           26 |           14 |            3 |            3 |           89 |           26 |            6 |            6 |          131 |           44 |           12 |           12 |          169 |           78 |           26 |           26 |          283 |          112 |           54 |           53 |          396 |          145 |          228 |          230 |          929 |          422 |          472 |          479 |         1203 |          683 |          938 |          995 |         1800 |         1290 |
sim_inst_rate                         1031027.0000 | 1031027.0000 |  114558.5556 |  206205.4000 | 2185424.0000 | 2185424.0000 |  145694.9333 |  312203.4286 | 4714939.0000 | 4714939.0000 |  181343.8077 |  336781.3571 | 3322886.3333 | 3322886.3333 |  112007.4045 |  383409.9615 | 3560410.1667 | 3560410.1667 |  163072.2214 |  485510.4773 | 3744792.9167 | 3744792.9167 |  265902.4556 |  576121.9872 | 3677915.7692 | 3677915.7692 |  337900.3887 |  853801.8750 | 3706430.5370 | 3776363.1887 |  505422.3460 | 1380325.8552 | 1856782.3377 | 1840636.4043 |  455701.1550 | 1003190.4573 | 1869373.9089 | 1842055.2923 |  733453.4372 | 1291866.0102 | 1979670.8603 | 1866262.5799 | 1031628.4817 | 1439481.6023 |
il1.accesses                               1031027 |      1031027 |      1031027 |      1031027 |      2185424 |      2185424 |      2185424 |      2185424 |      4714939 |      4714939 |      4714939 |      4714939 |      9968659 |      9968659 |      9968659 |      9968659 |     21362461 |     21362461 |     21362461 |     21362461 |     44937515 |     44937515 |     44937515 |     44937515 |     95625810 |     95625810 |     95625810 |     95625810 |    200147249 |    200147249 |    200147249 |    200147249 |    423346373 |    423346373 |    423346373 |    423346373 |    882344485 |    882344485 |    882344485 |    882344485 |   1856931267 |   1856931267 |   1856931267 |   1856931267 |
il1.hits                                   1030605 |      1030605 |      1030654 |      1030654 |      2185013 |      2185013 |      2185080 |      2185080 |      4714496 |      4714496 |      4714571 |      4714571 |      9968238 |      9968238 |      9968314 |      9968314 |     21362014 |     21362014 |     21362092 |     21362092 |     44937094 |     44937094 |     44937170 |     44937170 |     95625363 |     95625363 |     95625441 |     95625441 |    200146828 |    200146828 |    200146904 |    200146904 |    423345909 |    423345909 |    423345963 |    423345963 |    882344021 |    882344021 |    882344079 |    882344079 |   1856930803 |   1856930803 |   1856930857 |   1856930857 |
il1.misses                                     422 |          422 |          373 |          373 |          411 |          411 |          344 |          344 |          443 |          443 |          368 |          368 |          421 |          421 |          345 |          345 |          447 |          447 |          369 |          369 |          421 |          421 |          345 |          345 |          447 |          447 |          369 |          369 |          421 |          421 |          345 |          345 |          464 |          464 |          410 |          410 |          464 |          464 |          406 |          406 |          464 |          464 |          410 |          410 |
il1.replacements                               197 |          197 |          117 |          117 |          218 |          218 |           88 |           88 |          227 |          227 |          112 |          112 |          225 |          225 |           89 |           89 |          231 |          231 |          113 |          113 |          225 |          225 |           89 |           89 |          231 |          231 |          113 |          113 |          225 |          225 |           89 |           89 |          226 |          226 |          154 |          154 |          226 |          226 |          150 |          150 |          226 |          226 |          154 |          154 |
il1.writebacks                                   0 |            0 |            0 |            0 |            0 |            0 |            0 |            0 |            0 |            0 |            0 |            0 |            0 |            0 |            0 |            0 |            0 |            0 |            0 |            0 |            0 |            0 |            0 |            0 |            0 |            0 |            0 |            0 |            0 |            0 |            0 |            0 |            0 |            0 |            0 |            0 |            0 |            0 |            0 |            0 |            0 |            0 |            0 |            0 |
il1.invalidations                                0 |            0 |            0 |            0 |            0 |            0 |            0 |            0 |            0 |            0 |            0 |            0 |            0 |            0 |            0 |            0 |            0 |            0 |            0 |            0 |            0 |            0 |            0 |            0 |            0 |            0 |            0 |            0 |            0 |            0 |            0 |            0 |            0 |            0 |            0 |            0 |            0 |            0 |            0 |            0 |            0 |            0 |            0 |            0 |
il1.miss_rate                               0.0004 |       0.0004 |       0.0004 |       0.0004 |       0.0002 |       0.0002 |       0.0002 |       0.0002 |       0.0001 |       0.0001 |       0.0001 |       0.0001 |       0.0000 |       0.0000 |       0.0000 |       0.0000 |       0.0000 |       0.0000 |       0.0000 |       0.0000 |       0.0000 |       0.0000 |       0.0000 |       0.0000 |       0.0000 |       0.0000 |       0.0000 |       0.0000 |       0.0000 |       0.0000 |       0.0000 |       0.0000 |       0.0000 |       0.0000 |       0.0000 |       0.0000 |       0.0000 |       0.0000 |       0.0000 |       0.0000 |       0.0000 |       0.0000 |       0.0000 |       0.0000 |
il1.repl_rate                               0.0002 |       0.0002 |       0.0001 |       0.0001 |       0.0001 |       0.0001 |       0.0000 |       0.0000 |       0.0000 |       0.0000 |       0.0000 |       0.0000 |       0.0000 |       0.0000 |       0.0000 |       0.0000 |       0.0000 |       0.0000 |       0.0000 |       0.0000 |       0.0000 |       0.0000 |       0.0000 |       0.0000 |       0.0000 |       0.0000 |       0.0000 |       0.0000 |       0.0000 |       0.0000 |       0.0000 |       0.0000 |       0.0000 |       0.0000 |       0.0000 |       0.0000 |       0.0000 |       0.0000 |       0.0000 |       0.0000 |       0.0000 |       0.0000 |       0.0000 |       0.0000 |
il1.wb_rate                                 0.0000 |       0.0000 |       0.0000 |       0.0000 |       0.0000 |       0.0000 |       0.0000 |       0.0000 |       0.0000 |       0.0000 |       0.0000 |       0.0000 |       0.0000 |       0.0000 |       0.0000 |       0.0000 |       0.0000 |       0.0000 |       0.0000 |       0.0000 |       0.0000 |       0.0000 |       0.0000 |       0.0000 |       0.0000 |       0.0000 |       0.0000 |       0.0000 |       0.0000 |       0.0000 |       0.0000 |       0.0000 |       0.0000 |       0.0000 |       0.0000 |       0.0000 |       0.0000 |       0.0000 |       0.0000 |       0.0000 |       0.0000 |       0.0000 |       0.0000 |       0.0000 |
il1.inv_rate                                0.0000 |       0.0000 |       0.0000 |       0.0000 |       0.0000 |       0.0000 |       0.0000 |       0.0000 |       0.0000 |       0.0000 |       0.0000 |       0.0000 |       0.0000 |       0.0000 |       0.0000 |       0.0000 |       0.0000 |       0.0000 |       0.0000 |       0.0000 |       0.0000 |       0.0000 |       0.0000 |       0.0000 |       0.0000 |       0.0000 |       0.0000 |       0.0000 |       0.0000 |       0.0000 |       0.0000 |       0.0000 |       0.0000 |       0.0000 |       0.0000 |       0.0000 |       0.0000 |       0.0000 |       0.0000 |       0.0000 |       0.0000 |       0.0000 |       0.0000 |       0.0000 |
dl1.accesses                                300316 |       300316 |       300316 |       300316 |       617362 |       617362 |       617362 |       617362 |      1341324 |      1341324 |      1341324 |      1341324 |      2772686 |      2772686 |      2772686 |      2772686 |      5996180 |      5996180 |      5996180 |      5996180 |     12377798 |     12377798 |     12377798 |     12377798 |     26583000 |     26583000 |     26583000 |     26583000 |     54730228 |     54730228 |     54730228 |     54730228 |    116799593 |    116799593 |    116799593 |    116799593 |    239883715 |    239883715 |    239883715 |    239883715 |    509112044 |    509112044 |    509112044 |    509112044 |
dl1.hits                                    281827 |       281827 |       287048 |       287048 |       580570 |       580570 |       591290 |       591290 |      1260983 |      1260983 |      1281442 |      1281442 |      2613397 |      2613397 |      2653388 |      2653388 |      5646403 |      5646403 |      5725276 |      5725276 |     11740518 |     11740518 |     11836460 |     11836460 |     25199203 |     25199203 |     25369691 |     25369691 |     51995551 |     51995551 |     52304103 |     52304103 |    110748787 |    110748787 |    111422337 |    111422337 |    228022006 |    228022006 |    229130045 |    229130045 |    483127327 |    483127327 |    485508363 |    485508363 |
dl1.misses                                   18489 |        18489 |        13268 |        13268 |        36792 |        36792 |        26072 |        26072 |        80341 |        80341 |        59882 |        59882 |       159289 |       159289 |       119298 |       119298 |       349777 |       349777 |       270904 |       270904 |       637280 |       637280 |       541338 |       541338 |      1383797 |      1383797 |      1213309 |      1213309 |      2734677 |      2734677 |      2426125 |      2426125 |      6050806 |      6050806 |      5377256 |      5377256 |     11861709 |     11861709 |     10753670 |     10753670 |     25984717 |     25984717 |     23603681 |     23603681 |
dl1.replacements                             18233 |        18233 |        13012 |        13012 |        36536 |        36536 |        25816 |        25816 |        80085 |        80085 |        59626 |        59626 |       159033 |       159033 |       119042 |       119042 |       349521 |       349521 |       270648 |       270648 |       637024 |       637024 |       541082 |       541082 |      1383541 |      1383541 |      1213053 |      1213053 |      2734421 |      2734421 |      2425869 |      2425869 |      6050550 |      6050550 |      5377000 |      5377000 |     11861453 |     11861453 |     10753414 |     10753414 |     25984461 |     25984461 |     23603425 |     23603425 |
dl1.writebacks                                9396 |         9396 |         6966 |         6966 |        18673 |        18673 |        13627 |        13627 |        40604 |        40604 |        31051 |        31051 |        80368 |        80368 |        61796 |        61796 |       175602 |       175602 |       139672 |       139672 |       320043 |       320043 |       279035 |       279035 |       693440 |       693440 |       623324 |       623324 |      1367979 |      1367979 |      1246317 |      1246317 |      3022675 |      3022675 |      2755267 |      2755267 |      5915435 |      5915435 |      5510243 |      5510243 |     12944656 |     12944656 |     12068795 |     12068795 |
dl1.invalidations                                0 |            0 |            0 |            0 |            0 |            0 |            0 |            0 |            0 |            0 |            0 |            0 |            0 |            0 |            0 |            0 |            0 |            0 |            0 |            0 |            0 |            0 |            0 |            0 |            0 |            0 |            0 |            0 |            0 |            0 |            0 |            0 |            0 |            0 |            0 |            0 |            0 |            0 |            0 |            0 |            0 |            0 |            0 |            0 |
dl1.miss_rate                               0.0616 |       0.0616 |       0.0442 |       0.0442 |       0.0596 |       0.0596 |       0.0422 |       0.0422 |       0.0599 |       0.0599 |       0.0446 |       0.0446 |       0.0574 |       0.0574 |       0.0430 |       0.0430 |       0.0583 |       0.0583 |       0.0452 |       0.0452 |       0.0515 |       0.0515 |       0.0437 |       0.0437 |       0.0521 |       0.0521 |       0.0456 |       0.0456 |       0.0500 |       0.0500 |       0.0443 |       0.0443 |       0.0518 |       0.0518 |       0.0460 |       0.0460 |       0.0494 |       0.0494 |       0.0448 |       0.0448 |       0.0510 |       0.0510 |       0.0464 |       0.0464 |
dl1.repl_rate                               0.0607 |       0.0607 |       0.0433 |       0.0433 |       0.0592 |       0.0592 |       0.0418 |       0.0418 |       0.0597 |       0.0597 |       0.0445 |       0.0445 |       0.0574 |       0.0574 |       0.0429 |       0.0429 |       0.0583 |       0.0583 |       0.0451 |       0.0451 |       0.0515 |       0.0515 |       0.0437 |       0.0437 |       0.0520 |       0.0520 |       0.0456 |       0.0456 |       0.0500 |       0.0500 |       0.0443 |       0.0443 |       0.0518 |       0.0518 |       0.0460 |       0.0460 |       0.0494 |       0.0494 |       0.0448 |       0.0448 |       0.0510 |       0.0510 |       0.0464 |       0.0464 |
dl1.wb_rate                                 0.0313 |       0.0313 |       0.0232 |       0.0232 |       0.0302 |       0.0302 |       0.0221 |       0.0221 |       0.0303 |       0.0303 |       0.0231 |       0.0231 |       0.0290 |       0.0290 |       0.0223 |       0.0223 |       0.0293 |       0.0293 |       0.0233 |       0.0233 |       0.0259 |       0.0259 |       0.0225 |       0.0225 |       0.0261 |       0.0261 |       0.0234 |       0.0234 |       0.0250 |       0.0250 |       0.0228 |       0.0228 |       0.0259 |       0.0259 |       0.0236 |       0.0236 |       0.0247 |       0.0247 |       0.0230 |       0.0230 |       0.0254 |       0.0254 |       0.0237 |       0.0237 |
dl1.inv_rate                                0.0000 |       0.0000 |       0.0000 |       0.0000 |       0.0000 |       0.0000 |       0.0000 |       0.0000 |       0.0000 |       0.0000 |       0.0000 |       0.0000 |       0.0000 |       0.0000 |       0.0000 |       0.0000 |       0.0000 |       0.0000 |       0.0000 |       0.0000 |       0.0000 |       0.0000 |       0.0000 |       0.0000 |       0.0000 |       0.0000 |       0.0000 |       0.0000 |       0.0000 |       0.0000 |       0.0000 |       0.0000 |       0.0000 |       0.0000 |       0.0000 |       0.0000 |       0.0000 |       0.0000 |       0.0000 |       0.0000 |       0.0000 |       0.0000 |       0.0000 |       0.0000 |
dl2.accesses                                 28307 |        28307 |        20607 |        20607 |        55876 |        55876 |        40043 |        40043 |       121388 |       121388 |        91301 |        91301 |       240078 |       240078 |       181439 |       181439 |       525826 |       525826 |       410945 |       410945 |       957744 |       957744 |       820718 |       820718 |      2077684 |      2077684 |      1837002 |      1837002 |      4103077 |      4103077 |      3672787 |      3672787 |      9073945 |      9073945 |      8132933 |      8132933 |     17777608 |     17777608 |     16264319 |     16264319 |     38929837 |     38929837 |     35672886 |     35672886 |
dl2.hits                                     26468 |        26468 |        18793 |        18793 |        53035 |        53035 |        37235 |        37235 |       116474 |       116474 |        86420 |        86420 |       231093 |       231093 |       172486 |       172486 |       508624 |       508624 |       393775 |       393775 |       924183 |       924183 |       787189 |       787189 |      2011329 |      1960314 |      1770680 |      1536125 |      3920698 |      1908232 |      3043883 |      1263883 |      4320850 |      3739387 |      2790701 |      2773331 |      7107032 |      7054020 |      5546210 |      5529810 |     15389550 |     15353728 |     12107797 |     12091386 |
dl2.misses                                    1839 |         1839 |         1814 |         1814 |         2841 |         2841 |         2808 |         2808 |         4914 |         4914 |         4881 |         4881 |         8985 |         8985 |         8953 |         8953 |        17202 |        17202 |        17170 |        17170 |        33561 |        33561 |        33529 |        33529 |        66355 |       117370 |        66322 |       300877 |       182379 |      2194845 |       628904 |      2408904 |      4753095 |      5334558 |      5342232 |      5359602 |     10670576 |     10723588 |     10718109 |     10734509 |     23540287 |     23576109 |     23565089 |     23581500 |
dl2.replacements                               320 |          320 |            0 |            0 |          299 |          299 |            0 |            0 |          323 |          323 |            0 |            0 |          299 |          299 |            0 |            0 |          323 |          323 |            0 |            0 |          299 |          299 |            0 |            0 |          324 |        52882 |            0 |       235341 |        52356 |      2129309 |       497832 |      2343368 |      4622023 |      5269022 |      5211160 |      5294066 |     10539504 |     10658052 |     10587037 |     10668973 |     23409215 |     23510573 |     23434017 |     23515964 |
dl2.writebacks                                 219 |          219 |            0 |            0 |          198 |          198 |            0 |            0 |          222 |          222 |            0 |            0 |          199 |          199 |            0 |            0 |          223 |          223 |            0 |            0 |          199 |          199 |            0 |            0 |          223 |        29517 |            0 |       234878 |        28990 |      1223718 |       496976 |      1212867 |      2625147 |      2690897 |      2688194 |      2720963 |      5423209 |      5467535 |      5441473 |      5474245 |     11936326 |     12002796 |     11996620 |     12029402 |
dl2.invalidations                                0 |            0 |            0 |            0 |            0 |            0 |            0 |            0 |            0 |            0 |            0 |            0 |            0 |            0 |            0 |            0 |            0 |            0 |            0 |            0 |            0 |            0 |            0 |            0 |            0 |            0 |            0 |            0 |            0 |            0 |            0 |            0 |            0 |            0 |            0 |            0 |            0 |            0 |            0 |            0 |            0 |            0 |            0 |            0 |
dl2.miss_rate                               0.0650 |       0.0650 |       0.0880 |       0.0880 |       0.0508 |       0.0508 |       0.0701 |       0.0701 |       0.0405 |       0.0405 |       0.0535 |       0.0535 |       0.0374 |       0.0374 |       0.0493 |       0.0493 |       0.0327 |       0.0327 |       0.0418 |       0.0418 |       0.0350 |       0.0350 |       0.0409 |       0.0409 |       0.0319 |       0.0565 |       0.0361 |       0.1638 |       0.0444 |       0.5349 |       0.1712 |       0.6559 |       0.5238 |       0.5879 |       0.6569 |       0.6590 |       0.6002 |       0.6032 |       0.6590 |       0.6600 |       0.6047 |       0.6056 |       0.6606 |       0.6610 |
dl2.repl_rate                               0.0113 |       0.0113 |       0.0000 |       0.0000 |       0.0054 |       0.0054 |       0.0000 |       0.0000 |       0.0027 |       0.0027 |       0.0000 |       0.0000 |       0.0012 |       0.0012 |       0.0000 |       0.0000 |       0.0006 |       0.0006 |       0.0000 |       0.0000 |       0.0003 |       0.0003 |       0.0000 |       0.0000 |       0.0002 |       0.0255 |       0.0000 |       0.1281 |       0.0128 |       0.5190 |       0.1355 |       0.6380 |       0.5094 |       0.5807 |       0.6407 |       0.6509 |       0.5929 |       0.5995 |       0.6509 |       0.6560 |       0.6013 |       0.6039 |       0.6569 |       0.6592 |
dl2.wb_rate                                 0.0077 |       0.0077 |       0.0000 |       0.0000 |       0.0035 |       0.0035 |       0.0000 |       0.0000 |       0.0018 |       0.0018 |       0.0000 |       0.0000 |       0.0008 |       0.0008 |       0.0000 |       0.0000 |       0.0004 |       0.0004 |       0.0000 |       0.0000 |       0.0002 |       0.0002 |       0.0000 |       0.0000 |       0.0001 |       0.0142 |       0.0000 |       0.1279 |       0.0071 |       0.2982 |       0.1353 |       0.3302 |       0.2893 |       0.2966 |       0.3305 |       0.3346 |       0.3051 |       0.3076 |       0.3346 |       0.3366 |       0.3066 |       0.3083 |       0.3363 |       0.3372 |
dl2.inv_rate                                0.0000 |       0.0000 |       0.0000 |       0.0000 |       0.0000 |       0.0000 |       0.0000 |       0.0000 |       0.0000 |       0.0000 |       0.0000 |       0.0000 |       0.0000 |       0.0000 |       0.0000 |       0.0000 |       0.0000 |       0.0000 |       0.0000 |       0.0000 |       0.0000 |       0.0000 |       0.0000 |       0.0000 |       0.0000 |       0.0000 |       0.0000 |       0.0000 |       0.0000 |       0.0000 |       0.0000 |       0.0000 |       0.0000 |       0.0000 |       0.0000 |       0.0000 |       0.0000 |       0.0000 |       0.0000 |       0.0000 |       0.0000 |       0.0000 |       0.0000 |       0.0000 |
itlb.accesses                              1031027 |      1031027 |      1031027 |      1031027 |      2185424 |      2185424 |      2185424 |      2185424 |      4714939 |      4714939 |      4714939 |      4714939 |      9968659 |      9968659 |      9968659 |      9968659 |     21362461 |     21362461 |     21362461 |     21362461 |     44937515 |     44937515 |     44937515 |     44937515 |     95625810 |     95625810 |     95625810 |     95625810 |    200147249 |    200147249 |    200147249 |    200147249 |    423346373 |    423346373 |    423346373 |    423346373 |    882344485 |    882344485 |    882344485 |    882344485 |   1856931267 |   1856931267 |   1856931267 |   1856931267 |
itlb.hits                                  1031020 |      1031020 |      1031020 |      1031020 |      2185417 |      2185417 |      2185417 |      2185417 |      4714932 |      4714932 |      4714932 |      4714932 |      9968652 |      9968652 |      9968652 |      9968652 |     21362454 |     21362454 |     21362454 |     21362454 |     44937508 |     44937508 |     44937508 |     44937508 |     95625803 |     95625803 |     95625803 |     95625803 |    200147242 |    200147242 |    200147242 |    200147242 |    423346366 |    423346366 |    423346366 |    423346366 |    882344478 |    882344478 |    882344478 |    882344478 |   1856931260 |   1856931260 |   1856931260 |   1856931260 |
itlb.misses                                      7 |            7 |            7 |            7 |            7 |            7 |            7 |            7 |            7 |            7 |            7 |            7 |            7 |            7 |            7 |            7 |            7 |            7 |            7 |            7 |            7 |            7 |            7 |            7 |            7 |            7 |            7 |            7 |            7 |            7 |            7 |            7 |            7 |            7 |            7 |            7 |            7 |            7 |            7 |            7 |            7 |            7 |            7 |            7 |
itlb.replacements                                0 |            0 |            0 |            0 |            0 |            0 |            0 |            0 |            0 |            0 |            0 |            0 |            0 |            0 |            0 |            0 |            0 |            0 |            0 |            0 |            0 |            0 |            0 |            0 |            0 |            0 |            0 |            0 |            0 |            0 |            0 |            0 |            0 |            0 |            0 |            0 |            0 |            0 |            0 |            0 |            0 |            0 |            0 |            0 |
itlb.writebacks                                  0 |            0 |            0 |            0 |            0 |            0 |            0 |            0 |            0 |            0 |            0 |            0 |            0 |            0 |            0 |            0 |            0 |            0 |            0 |            0 |            0 |            0 |            0 |            0 |            0 |            0 |            0 |            0 |            0 |            0 |            0 |            0 |            0 |            0 |            0 |            0 |            0 |            0 |            0 |            0 |            0 |            0 |            0 |            0 |
itlb.invalidations                               0 |            0 |            0 |            0 |            0 |            0 |            0 |            0 |            0 |            0 |            0 |            0 |            0 |            0 |            0 |            0 |            0 |            0 |            0 |            0 |            0 |            0 |            0 |            0 |            0 |            0 |            0 |            0 |            0 |            0 |            0 |            0 |            0 |            0 |            0 |            0 |            0 |            0 |            0 |            0 |            0 |            0 |            0 |            0 |
itlb.miss_rate                              0.0000 |       0.0000 |       0.0000 |       0.0000 |       0.0000 |       0.0000 |       0.0000 |       0.0000 |       0.0000 |       0.0000 |       0.0000 |       0.0000 |       0.0000 |       0.0000 |       0.0000 |       0.0000 |       0.0000 |       0.0000 |       0.0000 |       0.0000 |       0.0000 |       0.0000 |       0.0000 |       0.0000 |       0.0000 |       0.0000 |       0.0000 |       0.0000 |       0.0000 |       0.0000 |       0.0000 |       0.0000 |       0.0000 |       0.0000 |       0.0000 |       0.0000 |       0.0000 |       0.0000 |       0.0000 |       0.0000 |       0.0000 |       0.0000 |       0.0000 |       0.0000 |
itlb.repl_rate                              0.0000 |       0.0000 |       0.0000 |       0.0000 |       0.0000 |       0.0000 |       0.0000 |       0.0000 |       0.0000 |       0.0000 |       0.0000 |       0.0000 |       0.0000 |       0.0000 |       0.0000 |       0.0000 |       0.0000 |       0.0000 |       0.0000 |       0.0000 |       0.0000 |       0.0000 |       0.0000 |       0.0000 |       0.0000 |       0.0000 |       0.0000 |       0.0000 |       0.0000 |       0.0000 |       0.0000 |       0.0000 |       0.0000 |       0.0000 |       0.0000 |       0.0000 |       0.0000 |       0.0000 |       0.0000 |       0.0000 |       0.0000 |       0.0000 |       0.0000 |       0.0000 |
itlb.wb_rate                                0.0000 |       0.0000 |       0.0000 |       0.0000 |       0.0000 |       0.0000 |       0.0000 |       0.0000 |       0.0000 |       0.0000 |       0.0000 |       0.0000 |       0.0000 |       0.0000 |       0.0000 |       0.0000 |       0.0000 |       0.0000 |       0.0000 |       0.0000 |       0.0000 |       0.0000 |       0.0000 |       0.0000 |       0.0000 |       0.0000 |       0.0000 |       0.0000 |       0.0000 |       0.0000 |       0.0000 |       0.0000 |       0.0000 |       0.0000 |       0.0000 |       0.0000 |       0.0000 |       0.0000 |       0.0000 |       0.0000 |       0.0000 |       0.0000 |       0.0000 |       0.0000 |
itlb.inv_rate                               0.0000 |       0.0000 |       0.0000 |       0.0000 |       0.0000 |       0.0000 |       0.0000 |       0.0000 |       0.0000 |       0.0000 |       0.0000 |       0.0000 |       0.0000 |       0.0000 |       0.0000 |       0.0000 |       0.0000 |       0.0000 |       0.0000 |       0.0000 |       0.0000 |       0.0000 |       0.0000 |       0.0000 |       0.0000 |       0.0000 |       0.0000 |       0.0000 |       0.0000 |       0.0000 |       0.0000 |       0.0000 |       0.0000 |       0.0000 |       0.0000 |       0.0000 |       0.0000 |       0.0000 |       0.0000 |       0.0000 |       0.0000 |       0.0000 |       0.0000 |       0.0000 |
dtlb.accesses                               300316 |       300316 |       300316 |       300316 |       617362 |       617362 |       617362 |       617362 |      1341324 |      1341324 |      1341324 |      1341324 |      2772686 |      2772686 |      2772686 |      2772686 |      5996180 |      5996180 |      5996180 |      5996180 |     12377798 |     12377798 |     12377798 |     12377798 |     26583000 |     26583000 |     26583000 |     26583000 |     54730228 |     54730228 |     54730228 |     54730228 |    116799593 |    116799593 |    116799593 |    116799593 |    239883715 |    239883715 |    239883715 |    239883715 |    509112044 |    509112044 |    509112044 |    509112044 |
dtlb.hits                                   300302 |       300302 |       300302 |       300302 |       617340 |       617340 |       617340 |       617340 |      1341286 |      1341286 |      1341286 |      1341286 |      2772616 |      2772616 |      2772616 |      2772616 |      5995969 |      5995969 |      5995969 |      5995969 |     12373617 |     12373617 |     12373617 |     12373617 |     26573529 |     26573529 |     26573529 |     26573529 |     54711278 |     54711278 |     54711278 |     54711278 |    116757581 |    116757581 |    116757581 |    116757581 |    239799682 |    239799682 |    239799682 |    239799682 |    508927577 |    508927577 |    508927577 |    508927577 |
dtlb.misses                                     14 |           14 |           14 |           14 |           22 |           22 |           22 |           22 |           38 |           38 |           38 |           38 |           70 |           70 |           70 |           70 |          211 |          211 |          211 |          211 |         4181 |         4181 |         4181 |         4181 |         9471 |         9471 |         9471 |         9471 |        18950 |        18950 |        18950 |        18950 |        42012 |        42012 |        42012 |        42012 |        84033 |        84033 |        84033 |        84033 |       184467 |       184467 |       184467 |       184467 |
dtlb.replacements                                0 |            0 |            0 |            0 |            0 |            0 |            0 |            0 |            0 |            0 |            0 |            0 |            0 |            0 |            0 |            0 |           83 |           83 |           83 |           83 |         4053 |         4053 |         4053 |         4053 |         9343 |         9343 |         9343 |         9343 |        18822 |        18822 |        18822 |        18822 |        41884 |        41884 |        41884 |        41884 |        83905 |        83905 |        83905 |        83905 |       184339 |       184339 |       184339 |       184339 |
dtlb.writebacks                                  0 |            0 |            0 |            0 |            0 |            0 |            0 |            0 |            0 |            0 |            0 |            0 |            0 |            0 |            0 |            0 |           50 |           50 |           50 |           50 |         2126 |         2126 |         2126 |         2126 |         4820 |         4820 |         4820 |         4820 |         9692 |         9692 |         9692 |         9692 |        21487 |        21487 |        21487 |        21487 |        43030 |        43030 |        43030 |        43030 |        94305 |        94305 |        94305 |        94305 |
dtlb.invalidations                               0 |            0 |            0 |            0 |            0 |            0 |            0 |            0 |            0 |            0 |            0 |            0 |            0 |            0 |            0 |            0 |            0 |            0 |            0 |            0 |            0 |            0 |            0 |            0 |            0 |            0 |            0 |            0 |            0 |            0 |            0 |            0 |            0 |            0 |            0 |            0 |            0 |            0 |            0 |            0 |            0 |            0 |            0 |            0 |
dtlb.miss_rate                              0.0000 |       0.0000 |       0.0000 |       0.0000 |       0.0000 |       0.0000 |       0.0000 |       0.0000 |       0.0000 |       0.0000 |       0.0000 |       0.0000 |       0.0000 |       0.0000 |       0.0000 |       0.0000 |       0.0000 |       0.0000 |       0.0000 |       0.0000 |       0.0003 |       0.0003 |       0.0003 |       0.0003 |       0.0004 |       0.0004 |       0.0004 |       0.0004 |       0.0003 |       0.0003 |       0.0003 |       0.0003 |       0.0004 |       0.0004 |       0.0004 |       0.0004 |       0.0004 |       0.0004 |       0.0004 |       0.0004 |       0.0004 |       0.0004 |       0.0004 |       0.0004 |
dtlb.repl_rate                              0.0000 |       0.0000 |       0.0000 |       0.0000 |       0.0000 |       0.0000 |       0.0000 |       0.0000 |       0.0000 |       0.0000 |       0.0000 |       0.0000 |       0.0000 |       0.0000 |       0.0000 |       0.0000 |       0.0000 |       0.0000 |       0.0000 |       0.0000 |       0.0003 |       0.0003 |       0.0003 |       0.0003 |       0.0004 |       0.0004 |       0.0004 |       0.0004 |       0.0003 |       0.0003 |       0.0003 |       0.0003 |       0.0004 |       0.0004 |       0.0004 |       0.0004 |       0.0003 |       0.0003 |       0.0003 |       0.0003 |       0.0004 |       0.0004 |       0.0004 |       0.0004 |
dtlb.wb_rate                                0.0000 |       0.0000 |       0.0000 |       0.0000 |       0.0000 |       0.0000 |       0.0000 |       0.0000 |       0.0000 |       0.0000 |       0.0000 |       0.0000 |       0.0000 |       0.0000 |       0.0000 |       0.0000 |       0.0000 |       0.0000 |       0.0000 |       0.0000 |       0.0002 |       0.0002 |       0.0002 |       0.0002 |       0.0002 |       0.0002 |       0.0002 |       0.0002 |       0.0002 |       0.0002 |       0.0002 |       0.0002 |       0.0002 |       0.0002 |       0.0002 |       0.0002 |       0.0002 |       0.0002 |       0.0002 |       0.0002 |       0.0002 |       0.0002 |       0.0002 |       0.0002 |
dtlb.inv_rate                               0.0000 |       0.0000 |       0.0000 |       0.0000 |       0.0000 |       0.0000 |       0.0000 |       0.0000 |       0.0000 |       0.0000 |       0.0000 |       0.0000 |       0.0000 |       0.0000 |       0.0000 |       0.0000 |       0.0000 |       0.0000 |       0.0000 |       0.0000 |       0.0000 |       0.0000 |       0.0000 |       0.0000 |       0.0000 |       0.0000 |       0.0000 |       0.0000 |       0.0000 |       0.0000 |       0.0000 |       0.0000 |       0.0000 |       0.0000 |       0.0000 |       0.0000 |       0.0000 |       0.0000 |       0.0000 |       0.0000 |       0.0000 |       0.0000 |       0.0000 |       0.0000 |
ld_text_base                            0x00400000 |   0x00400000 |   0x00400000 |   0x00400000 |   0x00400000 |   0x00400000 |   0x00400000 |   0x00400000 |   0x00400000 |   0x00400000 |   0x00400000 |   0x00400000 |   0x00400000 |   0x00400000 |   0x00400000 |   0x00400000 |   0x00400000 |   0x00400000 |   0x00400000 |   0x00400000 |   0x00400000 |   0x00400000 |   0x00400000 |   0x00400000 |   0x00400000 |   0x00400000 |   0x00400000 |   0x00400000 |   0x00400000 |   0x00400000 |   0x00400000 |   0x00400000 |   0x00400000 |   0x00400000 |   0x00400000 |   0x00400000 |   0x00400000 |   0x00400000 |   0x00400000 |   0x00400000 |   0x00400000 |   0x00400000 |   0x00400000 |   0x00400000 |
ld_text_size                                 26368 |        26368 |        26368 |        26368 |        26400 |        26400 |        26400 |        26400 |        26416 |        26416 |        26416 |        26416 |        26448 |        26448 |        26448 |        26448 |        26448 |        26448 |        26448 |        26448 |        26448 |        26448 |        26448 |        26448 |        26448 |        26448 |        26448 |        26448 |        26448 |        26448 |        26448 |        26448 |        26448 |        26448 |        26448 |        26448 |        26448 |        26448 |        26448 |        26448 |        26448 |        26448 |        26448 |        26448 |
ld_data_base                            0x10000000 |   0x10000000 |   0x10000000 |   0x10000000 |   0x10000000 |   0x10000000 |   0x10000000 |   0x10000000 |   0x10000000 |   0x10000000 |   0x10000000 |   0x10000000 |   0x10000000 |   0x10000000 |   0x10000000 |   0x10000000 |   0x10000000 |   0x10000000 |   0x10000000 |   0x10000000 |   0x10000000 |   0x10000000 |   0x10000000 |   0x10000000 |   0x10000000 |   0x10000000 |   0x10000000 |   0x10000000 |   0x10000000 |   0x10000000 |   0x10000000 |   0x10000000 |   0x10000000 |   0x10000000 |   0x10000000 |   0x10000000 |   0x10000000 |   0x10000000 |   0x10000000 |   0x10000000 |   0x10000000 |   0x10000000 |   0x10000000 |   0x10000000 |
ld_data_size                                  4096 |         4096 |         4096 |         4096 |         4096 |         4096 |         4096 |         4096 |         4096 |         4096 |         4096 |         4096 |         4096 |         4096 |         4096 |         4096 |         4096 |         4096 |         4096 |         4096 |         4096 |         4096 |         4096 |         4096 |         4096 |         4096 |         4096 |         4096 |         4096 |         4096 |         4096 |         4096 |         4096 |         4096 |         4096 |         4096 |         4096 |         4096 |         4096 |         4096 |         4096 |         4096 |         4096 |         4096 |
ld_stack_base                           0x7fffc000 |   0x7fffc000 |   0x7fffc000 |   0x7fffc000 |   0x7fffc000 |   0x7fffc000 |   0x7fffc000 |   0x7fffc000 |   0x7fffc000 |   0x7fffc000 |   0x7fffc000 |   0x7fffc000 |   0x7fffc000 |   0x7fffc000 |   0x7fffc000 |   0x7fffc000 |   0x7fffc000 |   0x7fffc000 |   0x7fffc000 |   0x7fffc000 |   0x7fffc000 |   0x7fffc000 |   0x7fffc000 |   0x7fffc000 |   0x7fffc000 |   0x7fffc000 |   0x7fffc000 |   0x7fffc000 |   0x7fffc000 |   0x7fffc000 |   0x7fffc000 |   0x7fffc000 |   0x7fffc000 |   0x7fffc000 |   0x7fffc000 |   0x7fffc000 |   0x7fffc000 |   0x7fffc000 |   0x7fffc000 |   0x7fffc000 |   0x7fffc000 |   0x7fffc000 |   0x7fffc000 |   0x7fffc000 |
ld_stack_size                                16384 |        16384 |        16384 |        16384 |        16384 |        16384 |        16384 |        16384 |        16384 |        16384 |        16384 |        16384 |        16384 |        16384 |        16384 |        16384 |        16384 |        16384 |        16384 |        16384 |        16384 |        16384 |        16384 |        16384 |        16384 |        16384 |        16384 |        16384 |        16384 |        16384 |        16384 |        16384 |        16384 |        16384 |        16384 |        16384 |        16384 |        16384 |        16384 |        16384 |        16384 |        16384 |        16384 |        16384 |
ld_prog_entry                           0x00400140 |   0x00400140 |   0x00400140 |   0x00400140 |   0x00400140 |   0x00400140 |   0x00400140 |   0x00400140 |   0x00400140 |   0x00400140 |   0x00400140 |   0x00400140 |   0x00400140 |   0x00400140 |   0x00400140 |   0x00400140 |   0x00400140 |   0x00400140 |   0x00400140 |   0x00400140 |   0x00400140 |   0x00400140 |   0x00400140 |   0x00400140 |   0x00400140 |   0x00400140 |   0x00400140 |   0x00400140 |   0x00400140 |   0x00400140 |   0x00400140 |   0x00400140 |   0x00400140 |   0x00400140 |   0x00400140 |   0x00400140 |   0x00400140 |   0x00400140 |   0x00400140 |   0x00400140 |   0x00400140 |   0x00400140 |   0x00400140 |   0x00400140 |
ld_environ_base                         0x7fff8000 |   0x7fff8000 |   0x7fff8000 |   0x7fff8000 |   0x7fff8000 |   0x7fff8000 |   0x7fff8000 |   0x7fff8000 |   0x7fff8000 |   0x7fff8000 |   0x7fff8000 |   0x7fff8000 |   0x7fff8000 |   0x7fff8000 |   0x7fff8000 |   0x7fff8000 |   0x7fff8000 |   0x7fff8000 |   0x7fff8000 |   0x7fff8000 |   0x7fff8000 |   0x7fff8000 |   0x7fff8000 |   0x7fff8000 |   0x7fff8000 |   0x7fff8000 |   0x7fff8000 |   0x7fff8000 |   0x7fff8000 |   0x7fff8000 |   0x7fff8000 |   0x7fff8000 |   0x7fff8000 |   0x7fff8000 |   0x7fff8000 |   0x7fff8000 |   0x7fff8000 |   0x7fff8000 |   0x7fff8000 |   0x7fff8000 |   0x7fff8000 |   0x7fff8000 |   0x7fff8000 |   0x7fff8000 |
ld_target_big_endian                             0 |            0 |            0 |            0 |            0 |            0 |            0 |            0 |            0 |            0 |            0 |            0 |            0 |            0 |            0 |            0 |            0 |            0 |            0 |            0 |            0 |            0 |            0 |            0 |            0 |            0 |            0 |            0 |            0 |            0 |            0 |            0 |            0 |            0 |            0 |            0 |            0 |            0 |            0 |            0 |            0 |            0 |            0 |            0 |
mem.page_count                                  21 |           21 |           21 |           21 |           29 |           29 |           29 |           29 |           45 |           45 |           45 |           45 |           77 |           77 |           77 |           77 |          141 |          141 |          141 |          141 |          269 |          269 |          269 |          269 |          525 |          525 |          525 |          525 |         1037 |         1037 |         1037 |         1037 |         2067 |         2067 |         2067 |         2067 |         4121 |         4121 |         4121 |         4121 |         8229 |         8229 |         8229 |         8229 |
mem.page_mem                                   84k |          84k |          84k |          84k |         116k |         116k |         116k |         116k |         180k |         180k |         180k |         180k |         308k |         308k |         308k |         308k |         564k |         564k |         564k |         564k |        1076k |        1076k |        1076k |        1076k |        2100k |        2100k |        2100k |        2100k |        4148k |        4148k |        4148k |        4148k |        8268k |        8268k |        8268k |        8268k |       16484k |       16484k |       16484k |       16484k |       32916k |       32916k |       32916k |       32916k |
mem.ptab_misses                                 21 |           21 |           21 |           21 |           29 |           29 |           29 |           29 |           45 |           45 |           45 |           45 |           77 |           77 |           77 |           77 |          141 |          141 |          141 |          141 |          269 |          269 |          269 |          269 |          525 |          525 |          525 |          525 |         1037 |         1037 |         1037 |         1037 |        97974 |        97974 |        97974 |        97974 |       105098 |       105098 |       105098 |       105098 |       114128 |       114128 |       114128 |       114128 |
mem.ptab_accesses                          4888182 |      4888182 |      4888182 |      4888182 |     10140054 |     10140054 |     10140054 |     10140054 |     21706134 |     21706134 |     21706134 |     21706134 |     45583930 |     45583930 |     45583930 |     45583930 |     97606126 |     97606126 |     97606126 |     97606126 |    204669578 |    204669578 |    204669578 |    204669578 |    435833162 |    435833162 |    435833162 |    435833162 |    910213374 |    910213374 |    910213374 |    910213374 |   1927148600 |   1927148600 |   1927148600 |   1927148600 |   4009309292 |   4009309292 |   4009309292 |   4009309292 |   8446113078 |   8446113078 |   8446113078 |   8446113078 |
mem.ptab_miss_rate                          0.0000 |       0.0000 |       0.0000 |       0.0000 |       0.0000 |       0.0000 |       0.0000 |       0.0000 |       0.0000 |       0.0000 |       0.0000 |       0.0000 |       0.0000 |       0.0000 |       0.0000 |       0.0000 |       0.0000 |       0.0000 |       0.0000 |       0.0000 |       0.0000 |       0.0000 |       0.0000 |       0.0000 |       0.0000 |       0.0000 |       0.0000 |       0.0000 |       0.0000 |       0.0000 |       0.0000 |       0.0000 |       0.0001 |       0.0001 |       0.0001 |       0.0001 |       0.0000 |       0.0000 |       0.0000 |       0.0000 |       0.0000 |       0.0000 |       0.0000 |       0.0000 |
-------------------------------------------------------------------------------------------------
sim-bpred                                     4096 |         4096 |         4096 |         4096 |         4096 |         4096 |         4096 |         8192 |         8192 |         8192 |         8192 |         8192 |         8192 |         8192 |        16384 |        16384 |        16384 |        16384 |        16384 |        16384 |        16384 |        32768 |        32768 |        32768 |        32768 |        32768 |        32768 |        32768 |        65536 |        65536 |        65536 |        65536 |        65536 |        65536 |        65536 |       131072 |       131072 |       131072 |       131072 |       131072 |       131072 |       131072 |       262144 |       262144 |       262144 |       262144 |       262144 |       262144 |       262144 |       524288 |       524288 |       524288 |       524288 |       524288 |       524288 |       524288 |      1048576 |      1048576 |      1048576 |      1048576 |      1048576 |      1048576 |      1048576 |      2097152 |      2097152 |      2097152 |      2097152 |      2097152 |      2097152 |      2097152 |      4194304 |      4194304 |      4194304 |      4194304 |      4194304 |      4194304 |      4194304 |
-bpred bimod -bpred:bimod 512
-bpred bimod -bpred:bimod 1024
-bpred bimod -bpred:bimod 2048
-bpred 2lev -bpred:2lev 1 512 10 1
-bpred 2lev -bpred:2lev 1 1024 10 1
-bpred 2lev -bpred:2lev 1 2048 10 1
-bpred 2lev -bpred:2lev 1 4096 10 1
-------------------------------------------------------------------------------------------------
sim_num_insn                               1031027 |      1031027 |      1031027 |      1031027 |      1031027 |      1031027 |      1031027 |      2185424 |      2185424 |      2185424 |      2185424 |      2185424 |      2185424 |      2185424 |      4714939 |      4714939 |      4714939 |      4714939 |      4714939 |      4714939 |      4714939 |      9968659 |      9968659 |      9968659 |      9968659 |      9968659 |      9968659 |      9968659 |     21362461 |     21362461 |     21362461 |     21362461 |     21362461 |     21362461 |     21362461 |     44937515 |     44937515 |     44937515 |     44937515 |     44937515 |     44937515 |     44937515 |     95625810 |     95625810 |     95625810 |     95625810 |     95625810 |     95625810 |     95625810 |    200147249 |    200147249 |    200147249 |    200147249 |    200147249 |    200147249 |    200147249 |    423346373 |    423346373 |    423346373 |    423346373 |    423346373 |    423346373 |    423346373 |    882344485 |    882344485 |    882344485 |    882344485 |    882344485 |    882344485 |    882344485 |   1856931267 |   1856931267 |   1856931267 |   1856931267 |   1856931267 |   1856931267 |   1856931267 |
sim_num_refs                                300246 |       300246 |       300246 |       300246 |       300246 |       300246 |       300246 |       617292 |       617292 |       617292 |       617292 |       617292 |       617292 |       617292 |      1341254 |      1341254 |      1341254 |      1341254 |      1341254 |      1341254 |      1341254 |      2772616 |      2772616 |      2772616 |      2772616 |      2772616 |      2772616 |      2772616 |      5996110 |      5996110 |      5996110 |      5996110 |      5996110 |      5996110 |      5996110 |     12377728 |     12377728 |     12377728 |     12377728 |     12377728 |     12377728 |     12377728 |     26582930 |     26582930 |     26582930 |     26582930 |     26582930 |     26582930 |     26582930 |     54730158 |     54730158 |     54730158 |     54730158 |     54730158 |     54730158 |     54730158 |    116799523 |    116799523 |    116799523 |    116799523 |    116799523 |    116799523 |    116799523 |    239883645 |    239883645 |    239883645 |    239883645 |    239883645 |    239883645 |    239883645 |    509111974 |    509111974 |    509111974 |    509111974 |    509111974 |    509111974 |    509111974 |
sim_elapsed_time                                 1 |            1 |            1 |            1 |            1 |            1 |            1 |            1 |            1 |            1 |            1 |            1 |            1 |            1 |            1 |            1 |            1 |            1 |            1 |            1 |            1 |            1 |            1 |            1 |            1 |            1 |            2 |            1 |            3 |            2 |            3 |            2 |            3 |            2 |            3 |            5 |            5 |            5 |            5 |            6 |            5 |            5 |           11 |           11 |           11 |           11 |           11 |           11 |           11 |           23 |           23 |           28 |           32 |           47 |           47 |           47 |           96 |           97 |          100 |          128 |          103 |           99 |           99 |           98 |           99 |          100 |          101 |          102 |          103 |          114 |          421 |          417 |          419 |          428 |          426 |          434 |          433 |
sim_inst_rate                         1031027.0000 | 1031027.0000 | 1031027.0000 | 1031027.0000 | 1031027.0000 | 1031027.0000 | 1031027.0000 | 2185424.0000 | 2185424.0000 | 2185424.0000 | 2185424.0000 | 2185424.0000 | 2185424.0000 | 2185424.0000 | 4714939.0000 | 4714939.0000 | 4714939.0000 | 4714939.0000 | 4714939.0000 | 4714939.0000 | 4714939.0000 | 9968659.0000 | 9968659.0000 | 9968659.0000 | 9968659.0000 | 9968659.0000 | 4984329.5000 | 9968659.0000 | 7120820.3333 |10681230.5000 | 7120820.3333 |10681230.5000 | 7120820.3333 |10681230.5000 | 7120820.3333 | 8987503.0000 | 8987503.0000 | 8987503.0000 | 8987503.0000 | 7489585.8333 | 8987503.0000 | 8987503.0000 | 8693255.4545 | 8693255.4545 | 8693255.4545 | 8693255.4545 | 8693255.4545 | 8693255.4545 | 8693255.4545 | 8702054.3043 | 8702054.3043 | 7148116.0357 | 6254601.5312 | 4258452.1064 | 4258452.1064 | 4258452.1064 | 4409858.0521 | 4364395.5979 | 4233463.7300 | 3307393.5391 | 4110158.9612 | 4276225.9899 | 4276225.9899 | 9003515.1531 | 8912570.5556 | 8823444.8500 | 8736084.0099 | 8650436.1275 | 8566451.3107 | 7739863.9035 | 4410763.1045 | 4453072.5827 | 4431816.8663 | 4338624.4556 | 4358993.5845 | 4278643.4724 | 4288524.8661 |
sim_num_branches                            143655 |       143655 |       143655 |       143655 |       143655 |       143655 |       143655 |       304143 |       304143 |       304143 |       304143 |       304143 |       304143 |       304143 |       648786 |       648786 |       648786 |       648786 |       648786 |       648786 |       648786 |      1371836 |      1371836 |      1371836 |      1371836 |      1371836 |      1371836 |      1371836 |      2912734 |      2912734 |      2912734 |      2912734 |      2912734 |      2912734 |      2912734 |      6134909 |      6134909 |      6134909 |      6134909 |      6134909 |      6134909 |      6134909 |     12955255 |     12955255 |     12955255 |     12955255 |     12955255 |     12955255 |     12955255 |     27152329 |     27152329 |     27152329 |     27152329 |     27152329 |     27152329 |     27152329 |     57050489 |     57050489 |     57050489 |     57050489 |     57050489 |     57050489 |     57050489 |    119081150 |    119081150 |    119081150 |    119081150 |    119081150 |    119081150 |    119081150 |    249172746 |    249172746 |    249172746 |    249172746 |    249172746 |    249172746 |    249172746 |
sim_IPB                                     7.1771 |       7.1771 |       7.1771 |       7.1771 |       7.1771 |       7.1771 |       7.1771 |       7.1855 |       7.1855 |       7.1855 |       7.1855 |       7.1855 |       7.1855 |       7.1855 |       7.2673 |       7.2673 |       7.2673 |       7.2673 |       7.2673 |       7.2673 |       7.2673 |       7.2667 |       7.2667 |       7.2667 |       7.2667 |       7.2667 |       7.2667 |       7.2667 |       7.3342 |       7.3342 |       7.3342 |       7.3342 |       7.3342 |       7.3342 |       7.3342 |       7.3249 |       7.3249 |       7.3249 |       7.3249 |       7.3249 |       7.3249 |       7.3249 |       7.3812 |       7.3812 |       7.3812 |       7.3812 |       7.3812 |       7.3812 |       7.3812 |       7.3713 |       7.3713 |       7.3713 |       7.3713 |       7.3713 |       7.3713 |       7.3713 |       7.4206 |       7.4206 |       7.4206 |       7.4206 |       7.4206 |       7.4206 |       7.4206 |       7.4096 |       7.4096 |       7.4096 |       7.4096 |       7.4096 |       7.4096 |       7.4096 |       7.4524 |       7.4524 |       7.4524 |       7.4524 |       7.4524 |       7.4524 |       7.4524 |
bpred_bimod.lookups                         143655 |       143655 |       143655 |xxxxxxxxxxxxx |xxxxxxxxxxxxx |xxxxxxxxxxxxx |xxxxxxxxxxxxx |       304143 |       304143 |       304143 |xxxxxxxxxxxxx |xxxxxxxxxxxxx |xxxxxxxxxxxxx |xxxxxxxxxxxxx |       648786 |       648786 |       648786 |xxxxxxxxxxxxx |xxxxxxxxxxxxx |xxxxxxxxxxxxx |xxxxxxxxxxxxx |      1371836 |      1371836 |      1371836 |xxxxxxxxxxxxx |xxxxxxxxxxxxx |xxxxxxxxxxxxx |xxxxxxxxxxxxx |      2912734 |      2912734 |      2912734 |xxxxxxxxxxxxx |xxxxxxxxxxxxx |xxxxxxxxxxxxx |xxxxxxxxxxxxx |      6134909 |      6134909 |      6134909 |xxxxxxxxxxxxx |xxxxxxxxxxxxx |xxxxxxxxxxxxx |xxxxxxxxxxxxx |     12955255 |     12955255 |     12955255 |xxxxxxxxxxxxx |xxxxxxxxxxxxx |xxxxxxxxxxxxx |xxxxxxxxxxxxx |     27152329 |     27152329 |     27152329 |xxxxxxxxxxxxx |xxxxxxxxxxxxx |xxxxxxxxxxxxx |xxxxxxxxxxxxx |     57050489 |     57050489 |     57050489 |xxxxxxxxxxxxx |xxxxxxxxxxxxx |xxxxxxxxxxxxx |xxxxxxxxxxxxx |    119081150 |    119081150 |    119081150 |xxxxxxxxxxxxx |xxxxxxxxxxxxx |xxxxxxxxxxxxx |xxxxxxxxxxxxx |    249172746 |    249172746 |    249172746 |
bpred_bimod.updates                         143655 |       143655 |       143655 |xxxxxxxxxxxxx |xxxxxxxxxxxxx |xxxxxxxxxxxxx |xxxxxxxxxxxxx |       304143 |       304143 |       304143 |xxxxxxxxxxxxx |xxxxxxxxxxxxx |xxxxxxxxxxxxx |xxxxxxxxxxxxx |       648786 |       648786 |       648786 |xxxxxxxxxxxxx |xxxxxxxxxxxxx |xxxxxxxxxxxxx |xxxxxxxxxxxxx |      1371836 |      1371836 |      1371836 |xxxxxxxxxxxxx |xxxxxxxxxxxxx |xxxxxxxxxxxxx |xxxxxxxxxxxxx |      2912734 |      2912734 |      2912734 |xxxxxxxxxxxxx |xxxxxxxxxxxxx |xxxxxxxxxxxxx |xxxxxxxxxxxxx |      6134909 |      6134909 |      6134909 |xxxxxxxxxxxxx |xxxxxxxxxxxxx |xxxxxxxxxxxxx |xxxxxxxxxxxxx |     12955255 |     12955255 |     12955255 |xxxxxxxxxxxxx |xxxxxxxxxxxxx |xxxxxxxxxxxxx |xxxxxxxxxxxxx |     27152329 |     27152329 |     27152329 |xxxxxxxxxxxxx |xxxxxxxxxxxxx |xxxxxxxxxxxxx |xxxxxxxxxxxxx |     57050489 |     57050489 |     57050489 |xxxxxxxxxxxxx |xxxxxxxxxxxxx |xxxxxxxxxxxxx |xxxxxxxxxxxxx |    119081150 |    119081150 |    119081150 |xxxxxxxxxxxxx |xxxxxxxxxxxxx |xxxxxxxxxxxxx |xxxxxxxxxxxxx |    249172746 |    249172746 |    249172746 |
bpred_bimod.addr_hits                       118208 |       118206 |       118208 |xxxxxxxxxxxxx |xxxxxxxxxxxxx |xxxxxxxxxxxxx |xxxxxxxxxxxxx |       249347 |       249347 |       249349 |xxxxxxxxxxxxx |xxxxxxxxxxxxx |xxxxxxxxxxxxx |xxxxxxxxxxxxx |       531087 |       531087 |       531090 |xxxxxxxxxxxxx |xxxxxxxxxxxxx |xxxxxxxxxxxxx |xxxxxxxxxxxxx |      1120239 |      1120238 |      1120240 |xxxxxxxxxxxxx |xxxxxxxxxxxxx |xxxxxxxxxxxxx |xxxxxxxxxxxxx |      2377534 |      2377533 |      2377535 |xxxxxxxxxxxxx |xxxxxxxxxxxxx |xxxxxxxxxxxxx |xxxxxxxxxxxxx |      4997615 |      4997614 |      4997616 |xxxxxxxxxxxxx |xxxxxxxxxxxxx |xxxxxxxxxxxxx |xxxxxxxxxxxxx |     10551351 |     10551350 |     10551352 |xxxxxxxxxxxxx |xxxxxxxxxxxxx |xxxxxxxxxxxxx |xxxxxxxxxxxxx |     22079823 |     22079822 |     22079824 |xxxxxxxxxxxxx |xxxxxxxxxxxxx |xxxxxxxxxxxxx |xxxxxxxxxxxxx |     46387972 |     46387971 |     46387974 |xxxxxxxxxxxxx |xxxxxxxxxxxxx |xxxxxxxxxxxxx |xxxxxxxxxxxxx |     96709245 |     96709244 |     96709246 |xxxxxxxxxxxxx |xxxxxxxxxxxxx |xxxxxxxxxxxxx |xxxxxxxxxxxxx |    202320158 |    202320157 |    202320159 |
bpred_bimod.dir_hits                        118324 |       118321 |       118322 |xxxxxxxxxxxxx |xxxxxxxxxxxxx |xxxxxxxxxxxxx |xxxxxxxxxxxxx |       249461 |       249461 |       249462 |xxxxxxxxxxxxx |xxxxxxxxxxxxx |xxxxxxxxxxxxx |xxxxxxxxxxxxx |       531208 |       531207 |       531209 |xxxxxxxxxxxxx |xxxxxxxxxxxxx |xxxxxxxxxxxxx |xxxxxxxxxxxxx |      1120355 |      1120353 |      1120354 |xxxxxxxxxxxxx |xxxxxxxxxxxxx |xxxxxxxxxxxxx |xxxxxxxxxxxxx |      2377655 |      2377653 |      2377654 |xxxxxxxxxxxxx |xxxxxxxxxxxxx |xxxxxxxxxxxxx |xxxxxxxxxxxxx |      4997731 |      4997729 |      4997730 |xxxxxxxxxxxxx |xxxxxxxxxxxxx |xxxxxxxxxxxxx |xxxxxxxxxxxxx |     10551472 |     10551470 |     10551471 |xxxxxxxxxxxxx |xxxxxxxxxxxxx |xxxxxxxxxxxxx |xxxxxxxxxxxxx |     22079938 |     22079936 |     22079937 |xxxxxxxxxxxxx |xxxxxxxxxxxxx |xxxxxxxxxxxxx |xxxxxxxxxxxxx |     46388099 |     46388096 |     46388098 |xxxxxxxxxxxxx |xxxxxxxxxxxxx |xxxxxxxxxxxxx |xxxxxxxxxxxxx |     96709372 |     96709369 |     96709370 |xxxxxxxxxxxxx |xxxxxxxxxxxxx |xxxxxxxxxxxxx |xxxxxxxxxxxxx |    202320285 |    202320282 |    202320283 |
bpred_bimod.misses                           25331 |        25334 |        25333 |xxxxxxxxxxxxx |xxxxxxxxxxxxx |xxxxxxxxxxxxx |xxxxxxxxxxxxx |        54682 |        54682 |        54681 |xxxxxxxxxxxxx |xxxxxxxxxxxxx |xxxxxxxxxxxxx |xxxxxxxxxxxxx |       117578 |       117579 |       117577 |xxxxxxxxxxxxx |xxxxxxxxxxxxx |xxxxxxxxxxxxx |xxxxxxxxxxxxx |       251481 |       251483 |       251482 |xxxxxxxxxxxxx |xxxxxxxxxxxxx |xxxxxxxxxxxxx |xxxxxxxxxxxxx |       535079 |       535081 |       535080 |xxxxxxxxxxxxx |xxxxxxxxxxxxx |xxxxxxxxxxxxx |xxxxxxxxxxxxx |      1137178 |      1137180 |      1137179 |xxxxxxxxxxxxx |xxxxxxxxxxxxx |xxxxxxxxxxxxx |xxxxxxxxxxxxx |      2403783 |      2403785 |      2403784 |xxxxxxxxxxxxx |xxxxxxxxxxxxx |xxxxxxxxxxxxx |xxxxxxxxxxxxx |      5072391 |      5072393 |      5072392 |xxxxxxxxxxxxx |xxxxxxxxxxxxx |xxxxxxxxxxxxx |xxxxxxxxxxxxx |     10662390 |     10662393 |     10662391 |xxxxxxxxxxxxx |xxxxxxxxxxxxx |xxxxxxxxxxxxx |xxxxxxxxxxxxx |     22371778 |     22371781 |     22371780 |xxxxxxxxxxxxx |xxxxxxxxxxxxx |xxxxxxxxxxxxx |xxxxxxxxxxxxx |     46852461 |     46852464 |     46852463 |
bpred_bimod.jr_hits                           8559 |         8559 |         8559 |xxxxxxxxxxxxx |xxxxxxxxxxxxx |xxxxxxxxxxxxx |xxxxxxxxxxxxx |        16757 |        16757 |        16757 |xxxxxxxxxxxxx |xxxxxxxxxxxxx |xxxxxxxxxxxxx |xxxxxxxxxxxxx |        33143 |        33143 |        33143 |xxxxxxxxxxxxx |xxxxxxxxxxxxx |xxxxxxxxxxxxx |xxxxxxxxxxxxx |        65909 |        65909 |        65909 |xxxxxxxxxxxxx |xxxxxxxxxxxxx |xxxxxxxxxxxxx |xxxxxxxxxxxxx |       131447 |       131447 |       131447 |xxxxxxxxxxxxx |xxxxxxxxxxxxx |xxxxxxxxxxxxx |xxxxxxxxxxxxx |       262517 |       262517 |       262517 |xxxxxxxxxxxxx |xxxxxxxxxxxxx |xxxxxxxxxxxxx |xxxxxxxxxxxxx |       524663 |       524663 |       524663 |xxxxxxxxxxxxx |xxxxxxxxxxxxx |xxxxxxxxxxxxx |xxxxxxxxxxxxx |      1048949 |      1048949 |      1048949 |xxxxxxxxxxxxx |xxxxxxxxxxxxx |xxxxxxxxxxxxx |xxxxxxxxxxxxx |      2097531 |      2097531 |      2097531 |xxxxxxxxxxxxx |xxxxxxxxxxxxx |xxxxxxxxxxxxx |xxxxxxxxxxxxx |      4194680 |      4194680 |      4194680 |xxxxxxxxxxxxx |xxxxxxxxxxxxx |xxxxxxxxxxxxx |xxxxxxxxxxxxx |      8388987 |      8388987 |      8388987 |
bpred_bimod.jr_seen                           8560 |         8560 |         8560 |xxxxxxxxxxxxx |xxxxxxxxxxxxx |xxxxxxxxxxxxx |xxxxxxxxxxxxx |        16758 |        16758 |        16758 |xxxxxxxxxxxxx |xxxxxxxxxxxxx |xxxxxxxxxxxxx |xxxxxxxxxxxxx |        33145 |        33145 |        33145 |xxxxxxxxxxxxx |xxxxxxxxxxxxx |xxxxxxxxxxxxx |xxxxxxxxxxxxx |        65910 |        65910 |        65910 |xxxxxxxxxxxxx |xxxxxxxxxxxxx |xxxxxxxxxxxxx |xxxxxxxxxxxxx |       131449 |       131449 |       131449 |xxxxxxxxxxxxx |xxxxxxxxxxxxx |xxxxxxxxxxxxx |xxxxxxxxxxxxx |       262518 |       262518 |       262518 |xxxxxxxxxxxxx |xxxxxxxxxxxxx |xxxxxxxxxxxxx |xxxxxxxxxxxxx |       524665 |       524665 |       524665 |xxxxxxxxxxxxx |xxxxxxxxxxxxx |xxxxxxxxxxxxx |xxxxxxxxxxxxx |      1048950 |      1048950 |      1048950 |xxxxxxxxxxxxx |xxxxxxxxxxxxx |xxxxxxxxxxxxx |xxxxxxxxxxxxx |      2097532 |      2097532 |      2097532 |xxxxxxxxxxxxx |xxxxxxxxxxxxx |xxxxxxxxxxxxx |xxxxxxxxxxxxx |      4194681 |      4194681 |      4194681 |xxxxxxxxxxxxx |xxxxxxxxxxxxx |xxxxxxxxxxxxx |xxxxxxxxxxxxx |      8388988 |      8388988 |      8388988 |
bpred_bimod.jr_non_ras_hits.PP                   0 |            0 |            0 |xxxxxxxxxxxxx |xxxxxxxxxxxxx |xxxxxxxxxxxxx |xxxxxxxxxxxxx |            0 |            0 |            0 |xxxxxxxxxxxxx |xxxxxxxxxxxxx |xxxxxxxxxxxxx |xxxxxxxxxxxxx |            0 |            0 |            0 |xxxxxxxxxxxxx |xxxxxxxxxxxxx |xxxxxxxxxxxxx |xxxxxxxxxxxxx |            0 |            0 |            0 |xxxxxxxxxxxxx |xxxxxxxxxxxxx |xxxxxxxxxxxxx |xxxxxxxxxxxxx |            0 |            0 |            0 |xxxxxxxxxxxxx |xxxxxxxxxxxxx |xxxxxxxxxxxxx |xxxxxxxxxxxxx |            0 |            0 |            0 |xxxxxxxxxxxxx |xxxxxxxxxxxxx |xxxxxxxxxxxxx |xxxxxxxxxxxxx |            0 |            0 |            0 |xxxxxxxxxxxxx |xxxxxxxxxxxxx |xxxxxxxxxxxxx |xxxxxxxxxxxxx |            0 |            0 |            0 |xxxxxxxxxxxxx |xxxxxxxxxxxxx |xxxxxxxxxxxxx |xxxxxxxxxxxxx |            1 |            1 |            1 |xxxxxxxxxxxxx |xxxxxxxxxxxxx |xxxxxxxxxxxxx |xxxxxxxxxxxxx |            0 |            0 |            0 |xxxxxxxxxxxxx |xxxxxxxxxxxxx |xxxxxxxxxxxxx |xxxxxxxxxxxxx |            1 |            1 |            1 |
bpred_bimod.jr_non_ras_seen.PP                   1 |            1 |            1 |xxxxxxxxxxxxx |xxxxxxxxxxxxx |xxxxxxxxxxxxx |xxxxxxxxxxxxx |            0 |            0 |            0 |xxxxxxxxxxxxx |xxxxxxxxxxxxx |xxxxxxxxxxxxx |xxxxxxxxxxxxx |            1 |            1 |            1 |xxxxxxxxxxxxx |xxxxxxxxxxxxx |xxxxxxxxxxxxx |xxxxxxxxxxxxx |            0 |            0 |            0 |xxxxxxxxxxxxx |xxxxxxxxxxxxx |xxxxxxxxxxxxx |xxxxxxxxxxxxx |            1 |            1 |            1 |xxxxxxxxxxxxx |xxxxxxxxxxxxx |xxxxxxxxxxxxx |xxxxxxxxxxxxx |            0 |            0 |            0 |xxxxxxxxxxxxx |xxxxxxxxxxxxx |xxxxxxxxxxxxx |xxxxxxxxxxxxx |            1 |            1 |            1 |xxxxxxxxxxxxx |xxxxxxxxxxxxx |xxxxxxxxxxxxx |xxxxxxxxxxxxx |            0 |            0 |            0 |xxxxxxxxxxxxx |xxxxxxxxxxxxx |xxxxxxxxxxxxx |xxxxxxxxxxxxx |            2 |            2 |            2 |xxxxxxxxxxxxx |xxxxxxxxxxxxx |xxxxxxxxxxxxx |xxxxxxxxxxxxx |            1 |            1 |            1 |xxxxxxxxxxxxx |xxxxxxxxxxxxx |xxxxxxxxxxxxx |xxxxxxxxxxxxx |            2 |            2 |            2 |
bpred_bimod.bpred_addr_rate                 0.8229 |       0.8228 |       0.8229 |xxxxxxxxxxxxx |xxxxxxxxxxxxx |xxxxxxxxxxxxx |xxxxxxxxxxxxx |       0.8198 |       0.8198 |       0.8198 |xxxxxxxxxxxxx |xxxxxxxxxxxxx |xxxxxxxxxxxxx |xxxxxxxxxxxxx |       0.8186 |       0.8186 |       0.8186 |xxxxxxxxxxxxx |xxxxxxxxxxxxx |xxxxxxxxxxxxx |xxxxxxxxxxxxx |       0.8166 |       0.8166 |       0.8166 |xxxxxxxxxxxxx |xxxxxxxxxxxxx |xxxxxxxxxxxxx |xxxxxxxxxxxxx |       0.8163 |       0.8163 |       0.8163 |xxxxxxxxxxxxx |xxxxxxxxxxxxx |xxxxxxxxxxxxx |xxxxxxxxxxxxx |       0.8146 |       0.8146 |       0.8146 |xxxxxxxxxxxxx |xxxxxxxxxxxxx |xxxxxxxxxxxxx |xxxxxxxxxxxxx |       0.8144 |       0.8144 |       0.8144 |xxxxxxxxxxxxx |xxxxxxxxxxxxx |xxxxxxxxxxxxx |xxxxxxxxxxxxx |       0.8132 |       0.8132 |       0.8132 |xxxxxxxxxxxxx |xxxxxxxxxxxxx |xxxxxxxxxxxxx |xxxxxxxxxxxxx |       0.8131 |       0.8131 |       0.8131 |xxxxxxxxxxxxx |xxxxxxxxxxxxx |xxxxxxxxxxxxx |xxxxxxxxxxxxx |       0.8121 |       0.8121 |       0.8121 |xxxxxxxxxxxxx |xxxxxxxxxxxxx |xxxxxxxxxxxxx |xxxxxxxxxxxxx |       0.8120 |       0.8120 |       0.8120 |
bpred_bimod.bpred_dir_rate                  0.8237 |       0.8236 |       0.8237 |xxxxxxxxxxxxx |xxxxxxxxxxxxx |xxxxxxxxxxxxx |xxxxxxxxxxxxx |       0.8202 |       0.8202 |       0.8202 |xxxxxxxxxxxxx |xxxxxxxxxxxxx |xxxxxxxxxxxxx |xxxxxxxxxxxxx |       0.8188 |       0.8188 |       0.8188 |xxxxxxxxxxxxx |xxxxxxxxxxxxx |xxxxxxxxxxxxx |xxxxxxxxxxxxx |       0.8167 |       0.8167 |       0.8167 |xxxxxxxxxxxxx |xxxxxxxxxxxxx |xxxxxxxxxxxxx |xxxxxxxxxxxxx |       0.8163 |       0.8163 |       0.8163 |xxxxxxxxxxxxx |xxxxxxxxxxxxx |xxxxxxxxxxxxx |xxxxxxxxxxxxx |       0.8146 |       0.8146 |       0.8146 |xxxxxxxxxxxxx |xxxxxxxxxxxxx |xxxxxxxxxxxxx |xxxxxxxxxxxxx |       0.8145 |       0.8145 |       0.8145 |xxxxxxxxxxxxx |xxxxxxxxxxxxx |xxxxxxxxxxxxx |xxxxxxxxxxxxx |       0.8132 |       0.8132 |       0.8132 |xxxxxxxxxxxxx |xxxxxxxxxxxxx |xxxxxxxxxxxxx |xxxxxxxxxxxxx |       0.8131 |       0.8131 |       0.8131 |xxxxxxxxxxxxx |xxxxxxxxxxxxx |xxxxxxxxxxxxx |xxxxxxxxxxxxx |       0.8121 |       0.8121 |       0.8121 |xxxxxxxxxxxxx |xxxxxxxxxxxxx |xxxxxxxxxxxxx |xxxxxxxxxxxxx |       0.8120 |       0.8120 |       0.8120 |
bpred_bimod.bpred_jr_rate                   0.9999 |       0.9999 |       0.9999 |xxxxxxxxxxxxx |xxxxxxxxxxxxx |xxxxxxxxxxxxx |xxxxxxxxxxxxx |       0.9999 |       0.9999 |       0.9999 |xxxxxxxxxxxxx |xxxxxxxxxxxxx |xxxxxxxxxxxxx |xxxxxxxxxxxxx |       0.9999 |       0.9999 |       0.9999 |xxxxxxxxxxxxx |xxxxxxxxxxxxx |xxxxxxxxxxxxx |xxxxxxxxxxxxx |       1.0000 |       1.0000 |       1.0000 |xxxxxxxxxxxxx |xxxxxxxxxxxxx |xxxxxxxxxxxxx |xxxxxxxxxxxxx |       1.0000 |       1.0000 |       1.0000 |xxxxxxxxxxxxx |xxxxxxxxxxxxx |xxxxxxxxxxxxx |xxxxxxxxxxxxx |       1.0000 |       1.0000 |       1.0000 |xxxxxxxxxxxxx |xxxxxxxxxxxxx |xxxxxxxxxxxxx |xxxxxxxxxxxxx |       1.0000 |       1.0000 |       1.0000 |xxxxxxxxxxxxx |xxxxxxxxxxxxx |xxxxxxxxxxxxx |xxxxxxxxxxxxx |       1.0000 |       1.0000 |       1.0000 |xxxxxxxxxxxxx |xxxxxxxxxxxxx |xxxxxxxxxxxxx |xxxxxxxxxxxxx |       1.0000 |       1.0000 |       1.0000 |xxxxxxxxxxxxx |xxxxxxxxxxxxx |xxxxxxxxxxxxx |xxxxxxxxxxxxx |       1.0000 |       1.0000 |       1.0000 |xxxxxxxxxxxxx |xxxxxxxxxxxxx |xxxxxxxxxxxxx |xxxxxxxxxxxxx |       1.0000 |       1.0000 |       1.0000 |
bpred_bimod.bpred_jr_non_ras_rate.PP        0.0000 |       0.0000 |       0.0000 |xxxxxxxxxxxxx |xxxxxxxxxxxxx |xxxxxxxxxxxxx |xxxxxxxxxxxxx |      <error: |      <error: |      <error: |xxxxxxxxxxxxx |xxxxxxxxxxxxx |xxxxxxxxxxxxx |xxxxxxxxxxxxx |       0.0000 |       0.0000 |       0.0000 |xxxxxxxxxxxxx |xxxxxxxxxxxxx |xxxxxxxxxxxxx |xxxxxxxxxxxxx |      <error: |      <error: |      <error: |xxxxxxxxxxxxx |xxxxxxxxxxxxx |xxxxxxxxxxxxx |xxxxxxxxxxxxx |       0.0000 |       0.0000 |       0.0000 |xxxxxxxxxxxxx |xxxxxxxxxxxxx |xxxxxxxxxxxxx |xxxxxxxxxxxxx |      <error: |      <error: |      <error: |xxxxxxxxxxxxx |xxxxxxxxxxxxx |xxxxxxxxxxxxx |xxxxxxxxxxxxx |       0.0000 |       0.0000 |       0.0000 |xxxxxxxxxxxxx |xxxxxxxxxxxxx |xxxxxxxxxxxxx |xxxxxxxxxxxxx |      <error: |      <error: |      <error: |xxxxxxxxxxxxx |xxxxxxxxxxxxx |xxxxxxxxxxxxx |xxxxxxxxxxxxx |       0.5000 |       0.5000 |       0.5000 |xxxxxxxxxxxxx |xxxxxxxxxxxxx |xxxxxxxxxxxxx |xxxxxxxxxxxxx |       0.0000 |       0.0000 |       0.0000 |xxxxxxxxxxxxx |xxxxxxxxxxxxx |xxxxxxxxxxxxx |xxxxxxxxxxxxx |       0.5000 |       0.5000 |       0.5000 |
bpred_bimod.retstack_pushes                   8561 |         8561 |         8561 |xxxxxxxxxxxxx |xxxxxxxxxxxxx |xxxxxxxxxxxxx |xxxxxxxxxxxxx |        16760 |        16760 |        16760 |xxxxxxxxxxxxx |xxxxxxxxxxxxx |xxxxxxxxxxxxx |xxxxxxxxxxxxx |        33146 |        33146 |        33146 |xxxxxxxxxxxxx |xxxxxxxxxxxxx |xxxxxxxxxxxxx |xxxxxxxxxxxxx |        65912 |        65912 |        65912 |xxxxxxxxxxxxx |xxxxxxxxxxxxx |xxxxxxxxxxxxx |xxxxxxxxxxxxx |       131450 |       131450 |       131450 |xxxxxxxxxxxxx |xxxxxxxxxxxxx |xxxxxxxxxxxxx |xxxxxxxxxxxxx |       262520 |       262520 |       262520 |xxxxxxxxxxxxx |xxxxxxxxxxxxx |xxxxxxxxxxxxx |xxxxxxxxxxxxx |       524666 |       524666 |       524666 |xxxxxxxxxxxxx |xxxxxxxxxxxxx |xxxxxxxxxxxxx |xxxxxxxxxxxxx |      1048952 |      1048952 |      1048952 |xxxxxxxxxxxxx |xxxxxxxxxxxxx |xxxxxxxxxxxxx |xxxxxxxxxxxxx |      2097532 |      2097532 |      2097532 |xxxxxxxxxxxxx |xxxxxxxxxxxxx |xxxxxxxxxxxxx |xxxxxxxxxxxxx |      4194682 |      4194682 |      4194682 |xxxxxxxxxxxxx |xxxxxxxxxxxxx |xxxxxxxxxxxxx |xxxxxxxxxxxxx |      8388988 |      8388988 |      8388988 |
bpred_bimod.retstack_pops                     8559 |         8559 |         8559 |xxxxxxxxxxxxx |xxxxxxxxxxxxx |xxxxxxxxxxxxx |xxxxxxxxxxxxx |        16758 |        16758 |        16758 |xxxxxxxxxxxxx |xxxxxxxxxxxxx |xxxxxxxxxxxxx |xxxxxxxxxxxxx |        33144 |        33144 |        33144 |xxxxxxxxxxxxx |xxxxxxxxxxxxx |xxxxxxxxxxxxx |xxxxxxxxxxxxx |        65910 |        65910 |        65910 |xxxxxxxxxxxxx |xxxxxxxxxxxxx |xxxxxxxxxxxxx |xxxxxxxxxxxxx |       131448 |       131448 |       131448 |xxxxxxxxxxxxx |xxxxxxxxxxxxx |xxxxxxxxxxxxx |xxxxxxxxxxxxx |       262518 |       262518 |       262518 |xxxxxxxxxxxxx |xxxxxxxxxxxxx |xxxxxxxxxxxxx |xxxxxxxxxxxxx |       524664 |       524664 |       524664 |xxxxxxxxxxxxx |xxxxxxxxxxxxx |xxxxxxxxxxxxx |xxxxxxxxxxxxx |      1048950 |      1048950 |      1048950 |xxxxxxxxxxxxx |xxxxxxxxxxxxx |xxxxxxxxxxxxx |xxxxxxxxxxxxx |      2097530 |      2097530 |      2097530 |xxxxxxxxxxxxx |xxxxxxxxxxxxx |xxxxxxxxxxxxx |xxxxxxxxxxxxx |      4194680 |      4194680 |      4194680 |xxxxxxxxxxxxx |xxxxxxxxxxxxx |xxxxxxxxxxxxx |xxxxxxxxxxxxx |      8388986 |      8388986 |      8388986 |
bpred_bimod.used_ras.PP                       8559 |         8559 |         8559 |xxxxxxxxxxxxx |xxxxxxxxxxxxx |xxxxxxxxxxxxx |xxxxxxxxxxxxx |        16758 |        16758 |        16758 |xxxxxxxxxxxxx |xxxxxxxxxxxxx |xxxxxxxxxxxxx |xxxxxxxxxxxxx |        33144 |        33144 |        33144 |xxxxxxxxxxxxx |xxxxxxxxxxxxx |xxxxxxxxxxxxx |xxxxxxxxxxxxx |        65910 |        65910 |        65910 |xxxxxxxxxxxxx |xxxxxxxxxxxxx |xxxxxxxxxxxxx |xxxxxxxxxxxxx |       131448 |       131448 |       131448 |xxxxxxxxxxxxx |xxxxxxxxxxxxx |xxxxxxxxxxxxx |xxxxxxxxxxxxx |       262518 |       262518 |       262518 |xxxxxxxxxxxxx |xxxxxxxxxxxxx |xxxxxxxxxxxxx |xxxxxxxxxxxxx |       524664 |       524664 |       524664 |xxxxxxxxxxxxx |xxxxxxxxxxxxx |xxxxxxxxxxxxx |xxxxxxxxxxxxx |      1048950 |      1048950 |      1048950 |xxxxxxxxxxxxx |xxxxxxxxxxxxx |xxxxxxxxxxxxx |xxxxxxxxxxxxx |      2097530 |      2097530 |      2097530 |xxxxxxxxxxxxx |xxxxxxxxxxxxx |xxxxxxxxxxxxx |xxxxxxxxxxxxx |      4194680 |      4194680 |      4194680 |xxxxxxxxxxxxx |xxxxxxxxxxxxx |xxxxxxxxxxxxx |xxxxxxxxxxxxx |      8388986 |      8388986 |      8388986 |
bpred_bimod.ras_hits.PP                       8559 |         8559 |         8559 |xxxxxxxxxxxxx |xxxxxxxxxxxxx |xxxxxxxxxxxxx |xxxxxxxxxxxxx |        16757 |        16757 |        16757 |xxxxxxxxxxxxx |xxxxxxxxxxxxx |xxxxxxxxxxxxx |xxxxxxxxxxxxx |        33143 |        33143 |        33143 |xxxxxxxxxxxxx |xxxxxxxxxxxxx |xxxxxxxxxxxxx |xxxxxxxxxxxxx |        65909 |        65909 |        65909 |xxxxxxxxxxxxx |xxxxxxxxxxxxx |xxxxxxxxxxxxx |xxxxxxxxxxxxx |       131447 |       131447 |       131447 |xxxxxxxxxxxxx |xxxxxxxxxxxxx |xxxxxxxxxxxxx |xxxxxxxxxxxxx |       262517 |       262517 |       262517 |xxxxxxxxxxxxx |xxxxxxxxxxxxx |xxxxxxxxxxxxx |xxxxxxxxxxxxx |       524663 |       524663 |       524663 |xxxxxxxxxxxxx |xxxxxxxxxxxxx |xxxxxxxxxxxxx |xxxxxxxxxxxxx |      1048949 |      1048949 |      1048949 |xxxxxxxxxxxxx |xxxxxxxxxxxxx |xxxxxxxxxxxxx |xxxxxxxxxxxxx |      2097530 |      2097530 |      2097530 |xxxxxxxxxxxxx |xxxxxxxxxxxxx |xxxxxxxxxxxxx |xxxxxxxxxxxxx |      4194680 |      4194680 |      4194680 |xxxxxxxxxxxxx |xxxxxxxxxxxxx |xxxxxxxxxxxxx |xxxxxxxxxxxxx |      8388986 |      8388986 |      8388986 |
bpred_bimod.ras_rate.PP                     1.0000 |       1.0000 |       1.0000 |xxxxxxxxxxxxx |xxxxxxxxxxxxx |xxxxxxxxxxxxx |xxxxxxxxxxxxx |       0.9999 |       0.9999 |       0.9999 |xxxxxxxxxxxxx |xxxxxxxxxxxxx |xxxxxxxxxxxxx |xxxxxxxxxxxxx |       1.0000 |       1.0000 |       1.0000 |xxxxxxxxxxxxx |xxxxxxxxxxxxx |xxxxxxxxxxxxx |xxxxxxxxxxxxx |       1.0000 |       1.0000 |       1.0000 |xxxxxxxxxxxxx |xxxxxxxxxxxxx |xxxxxxxxxxxxx |xxxxxxxxxxxxx |       1.0000 |       1.0000 |       1.0000 |xxxxxxxxxxxxx |xxxxxxxxxxxxx |xxxxxxxxxxxxx |xxxxxxxxxxxxx |       1.0000 |       1.0000 |       1.0000 |xxxxxxxxxxxxx |xxxxxxxxxxxxx |xxxxxxxxxxxxx |xxxxxxxxxxxxx |       1.0000 |       1.0000 |       1.0000 |xxxxxxxxxxxxx |xxxxxxxxxxxxx |xxxxxxxxxxxxx |xxxxxxxxxxxxx |       1.0000 |       1.0000 |       1.0000 |xxxxxxxxxxxxx |xxxxxxxxxxxxx |xxxxxxxxxxxxx |xxxxxxxxxxxxx |       1.0000 |       1.0000 |       1.0000 |xxxxxxxxxxxxx |xxxxxxxxxxxxx |xxxxxxxxxxxxx |xxxxxxxxxxxxx |       1.0000 |       1.0000 |       1.0000 |xxxxxxxxxxxxx |xxxxxxxxxxxxx |xxxxxxxxxxxxx |xxxxxxxxxxxxx |       1.0000 |       1.0000 |       1.0000 |
bpred_2lev.lookups                   xxxxxxxxxxxxx |xxxxxxxxxxxxx |xxxxxxxxxxxxx |       143655 |       143655 |       143655 |       143655 |xxxxxxxxxxxxx |xxxxxxxxxxxxx |xxxxxxxxxxxxx |       304143 |       304143 |       304143 |       304143 |xxxxxxxxxxxxx |xxxxxxxxxxxxx |xxxxxxxxxxxxx |       648786 |       648786 |       648786 |       648786 |xxxxxxxxxxxxx |xxxxxxxxxxxxx |xxxxxxxxxxxxx |      1371836 |      1371836 |      1371836 |      1371836 |xxxxxxxxxxxxx |xxxxxxxxxxxxx |xxxxxxxxxxxxx |      2912734 |      2912734 |      2912734 |      2912734 |xxxxxxxxxxxxx |xxxxxxxxxxxxx |xxxxxxxxxxxxx |      6134909 |      6134909 |      6134909 |      6134909 |xxxxxxxxxxxxx |xxxxxxxxxxxxx |xxxxxxxxxxxxx |     12955255 |     12955255 |     12955255 |     12955255 |xxxxxxxxxxxxx |xxxxxxxxxxxxx |xxxxxxxxxxxxx |     27152329 |     27152329 |     27152329 |     27152329 |xxxxxxxxxxxxx |xxxxxxxxxxxxx |xxxxxxxxxxxxx |     57050489 |     57050489 |     57050489 |     57050489 |xxxxxxxxxxxxx |xxxxxxxxxxxxx |xxxxxxxxxxxxx |    119081150 |    119081150 |    119081150 |    119081150 |xxxxxxxxxxxxx |xxxxxxxxxxxxx |xxxxxxxxxxxxx |    249172746 |    249172746 |    249172746 |    249172746 |
[...]
bpred_2lev.retstack_pops             xxxxxxxxxxxxx |xxxxxxxxxxxxx |xxxxxxxxxxxxx |         8559 |         8559 |         8559 |         8559 |xxxxxxxxxxxxx |xxxxxxxxxxxxx |xxxxxxxxxxxxx |        16758 |        16758 |        16758 |        16758 |xxxxxxxxxxxxx |xxxxxxxxxxxxx |xxxxxxxxxxxxx |        33144 |        33144 |        33144 |        33144 |xxxxxxxxxxxxx |xxxxxxxxxxxxx |xxxxxxxxxxxxx |        65910 |        65910 |        65910 |        65910 |xxxxxxxxxxxxx |xxxxxxxxxxxxx |xxxxxxxxxxxxx |       131448 |       131448 |       131448 |       131448 |xxxxxxxxxxxxx |xxxxxxxxxxxxx |xxxxxxxxxxxxx |       262518 |       262518 |       262518 |       262518 |xxxxxxxxxxxxx |xxxxxxxxxxxxx |xxxxxxxxxxxxx |       524664 |       524664 |       524664 |       524664 |xxxxxxxxxxxxx |xxxxxxxxxxxxx |xxxxxxxxxxxxx |      1048950 |      1048950 |      1048950 |      1048950 |xxxxxxxxxxxxx |xxxxxxxxxxxxx |xxxxxxxxxxxxx |      2097530 |      2097530 |      2097530 |      2097530 |xxxxxxxxxxxxx |xxxxxxxxxxxxx |xxxxxxxxxxxxx |      4194680 |      4194680 |      4194680 |      4194680 |xxxxxxxxxxxxx |xxxxxxxxxxxxx |xxxxxxxxxxxxx |      8388986 |      8388986 |      8388986 |      8388986 |
bpred_2lev.used_ras.PP               xxxxxxxxxxxxx |xxxxxxxxxxxxx |xxxxxxxxxxxxx |         8559 |         8559 |         8559 |         8559 |xxxxxxxxxxxxx |xxxxxxxxxxxxx |xxxxxxxxxxxxx |        16758 |        16758 |        16758 |        16758 |xxxxxxxxxxxxx |xxxxxxxxxxxxx |xxxxxxxxxxxxx |        33144 |        33144 |        33144 |        33144 |xxxxxxxxxxxxx |xxxxxxxxxxxxx |xxxxxxxxxxxxx |        65910 |        65910 |        65910 |        65910 |xxxxxxxxxxxxx |xxxxxxxxxxxxx |xxxxxxxxxxxxx |       131448 |       131448 |       131448 |       131448 |xxxxxxxxxxxxx |xxxxxxxxxxxxx |xxxxxxxxxxxxx |       262518 |       262518 |       262518 |       262518 |xxxxxxxxxxxxx |xxxxxxxxxxxxx |xxxxxxxxxxxxx |       524664 |       524664 |       524664 |       524664 |xxxxxxxxxxxxx |xxxxxxxxxxxxx |xxxxxxxxxxxxx |      1048950 |      1048950 |      1048950 |      1048950 |xxxxxxxxxxxxx |xxxxxxxxxxxxx |xxxxxxxxxxxxx |      2097530 |      2097530 |      2097530 |      2097530 |xxxxxxxxxxxxx |xxxxxxxxxxxxx |xxxxxxxxxxxxx |      4194680 |      4194680 |      4194680 |      4194680 |xxxxxxxxxxxxx |xxxxxxxxxxxxx |xxxxxxxxxxxxx |      8388986 |      8388986 |      8388986 |      8388986 |
bpred_2lev.ras_hits.PP               xxxxxxxxxxxxx |xxxxxxxxxxxxx |xxxxxxxxxxxxx |         8559 |         8559 |         8559 |         8559 |xxxxxxxxxxxxx |xxxxxxxxxxxxx |xxxxxxxxxxxxx |        16757 |        16757 |        16757 |        16757 |xxxxxxxxxxxxx |xxxxxxxxxxxxx |xxxxxxxxxxxxx |        33143 |        33143 |        33143 |        33143 |xxxxxxxxxxxxx |xxxxxxxxxxxxx |xxxxxxxxxxxxx |        65909 |        65909 |        65909 |        65909 |xxxxxxxxxxxxx |xxxxxxxxxxxxx |xxxxxxxxxxxxx |       131447 |       131447 |       131447 |       131447 |xxxxxxxxxxxxx |xxxxxxxxxxxxx |xxxxxxxxxxxxx |       262517 |       262517 |       262517 |       262517 |xxxxxxxxxxxxx |xxxxxxxxxxxxx |xxxxxxxxxxxxx |       524663 |       524663 |       524663 |       524663 |xxxxxxxxxxxxx |xxxxxxxxxxxxx |xxxxxxxxxxxxx |      1048949 |      1048949 |      1048949 |      1048949 |xxxxxxxxxxxxx |xxxxxxxxxxxxx |xxxxxxxxxxxxx |      2097530 |      2097530 |      2097530 |      2097530 |xxxxxxxxxxxxx |xxxxxxxxxxxxx |xxxxxxxxxxxxx |      4194680 |      4194680 |      4194680 |      4194680 |xxxxxxxxxxxxx |xxxxxxxxxxxxx |xxxxxxxxxxxxx |      8388986 |      8388986 |      8388986 |      8388986 |
bpred_2lev.ras_rate.PP               xxxxxxxxxxxxx |xxxxxxxxxxxxx |xxxxxxxxxxxxx |       1.0000 |       1.0000 |       1.0000 |       1.0000 |xxxxxxxxxxxxx |xxxxxxxxxxxxx |xxxxxxxxxxxxx |       0.9999 |       0.9999 |       0.9999 |       0.9999 |xxxxxxxxxxxxx |xxxxxxxxxxxxx |xxxxxxxxxxxxx |       1.0000 |       1.0000 |       1.0000 |       1.0000 |xxxxxxxxxxxxx |xxxxxxxxxxxxx |xxxxxxxxxxxxx |       1.0000 |       1.0000 |       1.0000 |       1.0000 |xxxxxxxxxxxxx |xxxxxxxxxxxxx |xxxxxxxxxxxxx |       1.0000 |       1.0000 |       1.0000 |       1.0000 |xxxxxxxxxxxxx |xxxxxxxxxxxxx |xxxxxxxxxxxxx |       1.0000 |       1.0000 |       1.0000 |       1.0000 |xxxxxxxxxxxxx |xxxxxxxxxxxxx |xxxxxxxxxxxxx |       1.0000 |       1.0000 |       1.0000 |       1.0000 |xxxxxxxxxxxxx |xxxxxxxxxxxxx |xxxxxxxxxxxxx |       1.0000 |       1.0000 |       1.0000 |       1.0000 |xxxxxxxxxxxxx |xxxxxxxxxxxxx |xxxxxxxxxxxxx |       1.0000 |       1.0000 |       1.0000 |       1.0000 |xxxxxxxxxxxxx |xxxxxxxxxxxxx |xxxxxxxxxxxxx |       1.0000 |       1.0000 |       1.0000 |       1.0000 |xxxxxxxxxxxxx |xxxxxxxxxxxxx |xxxxxxxxxxxxx |       1.0000 |       1.0000 |       1.0000 |       1.0000 |

Command list: 
	sslittle-na-sstrix-gcc -Wall -O3 -funroll-loops -finline-functions  -DRANDOM_SIZE=4096 -DSEED=0 -DSORT=knuth_base_mergesort knuth_base_mergesort91700896.c simpleMain.c -o knuth_base_mergesort1599132682
	sim-cache -cache:dl1 dl1:256:32:1:l -cache:dl2 dl2:131072:32:1:l -cache:il1 il1:256:32:1:l -cache:il2 dl2 knuth_base_mergesort1599132682
	sim-cache -cache:dl1 dl1:256:32:1:l -cache:dl2 dl2:65536:32:1:l -cache:il1 il1:256:32:1:l -cache:il2 dl2 knuth_base_mergesort1599132682
	sim-cache -cache:dl1 dl1:1:32:256:l -cache:dl2 dl2:1:32:131072:l -cache:il1 il1:1:32:256:l -cache:il2 dl2 knuth_base_mergesort1599132682
	sim-cache -cache:dl1 dl1:1:32:256:l -cache:dl2 dl2:1:32:65536:l -cache:il1 il1:1:32:256:l -cache:il2 dl2 knuth_base_mergesort1599132682
	sim-bpred -bpred bimod -bpred:bimod 512 knuth_base_mergesort1599132682
	sim-bpred -bpred bimod -bpred:bimod 1024 knuth_base_mergesort1599132682
	sim-bpred -bpred bimod -bpred:bimod 2048 knuth_base_mergesort1599132682
	sim-bpred -bpred 2lev -bpred:2lev 1 512 10 1 knuth_base_mergesort1599132682
	sim-bpred -bpred 2lev -bpred:2lev 1 1024 10 1 knuth_base_mergesort1599132682
	sim-bpred -bpred 2lev -bpred:2lev 1 2048 10 1 knuth_base_mergesort1599132682
	sim-bpred -bpred 2lev -bpred:2lev 1 4096 10 1 knuth_base_mergesort1599132682
	sslittle-na-sstrix-gcc -Wall -O3 -funroll-loops -finline-functions  -DRANDOM_SIZE=8192 -DSEED=0 -DSORT=knuth_base_mergesort knuth_base_mergesort91700896.c simpleMain.c -o knuth_base_mergesort1599132682
	sim-cache -cache:dl1 dl1:256:32:1:l -cache:dl2 dl2:131072:32:1:l -cache:il1 il1:256:32:1:l -cache:il2 dl2 knuth_base_mergesort1599132682
	sim-cache -cache:dl1 dl1:256:32:1:l -cache:dl2 dl2:65536:32:1:l -cache:il1 il1:256:32:1:l -cache:il2 dl2 knuth_base_mergesort1599132682
	sim-cache -cache:dl1 dl1:1:32:256:l -cache:dl2 dl2:1:32:131072:l -cache:il1 il1:1:32:256:l -cache:il2 dl2 knuth_base_mergesort1599132682
	sim-cache -cache:dl1 dl1:1:32:256:l -cache:dl2 dl2:1:32:65536:l -cache:il1 il1:1:32:256:l -cache:il2 dl2 knuth_base_mergesort1599132682
	sim-bpred -bpred bimod -bpred:bimod 512 knuth_base_mergesort1599132682
	sim-bpred -bpred bimod -bpred:bimod 1024 knuth_base_mergesort1599132682
	sim-bpred -bpred bimod -bpred:bimod 2048 knuth_base_mergesort1599132682
	sim-bpred -bpred 2lev -bpred:2lev 1 512 10 1 knuth_base_mergesort1599132682
	sim-bpred -bpred 2lev -bpred:2lev 1 1024 10 1 knuth_base_mergesort1599132682
	sim-bpred -bpred 2lev -bpred:2lev 1 2048 10 1 knuth_base_mergesort1599132682
	sim-bpred -bpred 2lev -bpred:2lev 1 4096 10 1 knuth_base_mergesort1599132682
	sslittle-na-sstrix-gcc -Wall -O3 -funroll-loops -finline-functions  -DRANDOM_SIZE=16384 -DSEED=0 -DSORT=knuth_base_mergesort knuth_base_mergesort91700896.c simpleMain.c -o knuth_base_mergesort1599132682
	sim-cache -cache:dl1 dl1:256:32:1:l -cache:dl2 dl2:131072:32:1:l -cache:il1 il1:256:32:1:l -cache:il2 dl2 knuth_base_mergesort1599132682
	sim-cache -cache:dl1 dl1:256:32:1:l -cache:dl2 dl2:65536:32:1:l -cache:il1 il1:256:32:1:l -cache:il2 dl2 knuth_base_mergesort1599132682
	sim-cache -cache:dl1 dl1:1:32:256:l -cache:dl2 dl2:1:32:131072:l -cache:il1 il1:1:32:256:l -cache:il2 dl2 knuth_base_mergesort1599132682
	sim-cache -cache:dl1 dl1:1:32:256:l -cache:dl2 dl2:1:32:65536:l -cache:il1 il1:1:32:256:l -cache:il2 dl2 knuth_base_mergesort1599132682
	sim-bpred -bpred bimod -bpred:bimod 512 knuth_base_mergesort1599132682
	sim-bpred -bpred bimod -bpred:bimod 1024 knuth_base_mergesort1599132682
	sim-bpred -bpred bimod -bpred:bimod 2048 knuth_base_mergesort1599132682
	sim-bpred -bpred 2lev -bpred:2lev 1 512 10 1 knuth_base_mergesort1599132682
	sim-bpred -bpred 2lev -bpred:2lev 1 1024 10 1 knuth_base_mergesort1599132682
	sim-bpred -bpred 2lev -bpred:2lev 1 2048 10 1 knuth_base_mergesort1599132682
	sim-bpred -bpred 2lev -bpred:2lev 1 4096 10 1 knuth_base_mergesort1599132682
	sslittle-na-sstrix-gcc -Wall -O3 -funroll-loops -finline-functions  -DRANDOM_SIZE=32768 -DSEED=0 -DSORT=knuth_base_mergesort knuth_base_mergesort91700896.c simpleMain.c -o knuth_base_mergesort1599132682
	sim-cache -cache:dl1 dl1:256:32:1:l -cache:dl2 dl2:131072:32:1:l -cache:il1 il1:256:32:1:l -cache:il2 dl2 knuth_base_mergesort1599132682
	sim-cache -cache:dl1 dl1:256:32:1:l -cache:dl2 dl2:65536:32:1:l -cache:il1 il1:256:32:1:l -cache:il2 dl2 knuth_base_mergesort1599132682
	sim-cache -cache:dl1 dl1:1:32:256:l -cache:dl2 dl2:1:32:131072:l -cache:il1 il1:1:32:256:l -cache:il2 dl2 knuth_base_mergesort1599132682
	sim-cache -cache:dl1 dl1:1:32:256:l -cache:dl2 dl2:1:32:65536:l -cache:il1 il1:1:32:256:l -cache:il2 dl2 knuth_base_mergesort1599132682
	sim-bpred -bpred bimod -bpred:bimod 512 knuth_base_mergesort1599132682
	sim-bpred -bpred bimod -bpred:bimod 1024 knuth_base_mergesort1599132682
	sim-bpred -bpred bimod -bpred:bimod 2048 knuth_base_mergesort1599132682
	sim-bpred -bpred 2lev -bpred:2lev 1 512 10 1 knuth_base_mergesort1599132682
	sim-bpred -bpred 2lev -bpred:2lev 1 1024 10 1 knuth_base_mergesort1599132682
	sim-bpred -bpred 2lev -bpred:2lev 1 2048 10 1 knuth_base_mergesort1599132682
	sim-bpred -bpred 2lev -bpred:2lev 1 4096 10 1 knuth_base_mergesort1599132682
	sslittle-na-sstrix-gcc -Wall -O3 -funroll-loops -finline-functions  -DRANDOM_SIZE=65536 -DSEED=0 -DSORT=knuth_base_mergesort knuth_base_mergesort91700896.c simpleMain.c -o knuth_base_mergesort1599132682
	sim-cache -cache:dl1 dl1:256:32:1:l -cache:dl2 dl2:131072:32:1:l -cache:il1 il1:256:32:1:l -cache:il2 dl2 knuth_base_mergesort1599132682
	sim-cache -cache:dl1 dl1:256:32:1:l -cache:dl2 dl2:65536:32:1:l -cache:il1 il1:256:32:1:l -cache:il2 dl2 knuth_base_mergesort1599132682
	sim-cache -cache:dl1 dl1:1:32:256:l -cache:dl2 dl2:1:32:131072:l -cache:il1 il1:1:32:256:l -cache:il2 dl2 knuth_base_mergesort1599132682
	sim-cache -cache:dl1 dl1:1:32:256:l -cache:dl2 dl2:1:32:65536:l -cache:il1 il1:1:32:256:l -cache:il2 dl2 knuth_base_mergesort1599132682
	sim-bpred -bpred bimod -bpred:bimod 512 knuth_base_mergesort1599132682
	sim-bpred -bpred bimod -bpred:bimod 1024 knuth_base_mergesort1599132682
	sim-bpred -bpred bimod -bpred:bimod 2048 knuth_base_mergesort1599132682
	sim-bpred -bpred 2lev -bpred:2lev 1 512 10 1 knuth_base_mergesort1599132682
	sim-bpred -bpred 2lev -bpred:2lev 1 1024 10 1 knuth_base_mergesort1599132682
	sim-bpred -bpred 2lev -bpred:2lev 1 2048 10 1 knuth_base_mergesort1599132682
	sim-bpred -bpred 2lev -bpred:2lev 1 4096 10 1 knuth_base_mergesort1599132682
	sslittle-na-sstrix-gcc -Wall -O3 -funroll-loops -finline-functions  -DRANDOM_SIZE=131072 -DSEED=0 -DSORT=knuth_base_mergesort knuth_base_mergesort91700896.c simpleMain.c -o knuth_base_mergesort1599132682
	sim-cache -cache:dl1 dl1:256:32:1:l -cache:dl2 dl2:131072:32:1:l -cache:il1 il1:256:32:1:l -cache:il2 dl2 knuth_base_mergesort1599132682
	sim-cache -cache:dl1 dl1:256:32:1:l -cache:dl2 dl2:65536:32:1:l -cache:il1 il1:256:32:1:l -cache:il2 dl2 knuth_base_mergesort1599132682
	sim-cache -cache:dl1 dl1:1:32:256:l -cache:dl2 dl2:1:32:131072:l -cache:il1 il1:1:32:256:l -cache:il2 dl2 knuth_base_mergesort1599132682
	sim-cache -cache:dl1 dl1:1:32:256:l -cache:dl2 dl2:1:32:65536:l -cache:il1 il1:1:32:256:l -cache:il2 dl2 knuth_base_mergesort1599132682
	sim-bpred -bpred bimod -bpred:bimod 512 knuth_base_mergesort1599132682
	sim-bpred -bpred bimod -bpred:bimod 1024 knuth_base_mergesort1599132682
	sim-bpred -bpred bimod -bpred:bimod 2048 knuth_base_mergesort1599132682
	sim-bpred -bpred 2lev -bpred:2lev 1 512 10 1 knuth_base_mergesort1599132682
	sim-bpred -bpred 2lev -bpred:2lev 1 1024 10 1 knuth_base_mergesort1599132682
	sim-bpred -bpred 2lev -bpred:2lev 1 2048 10 1 knuth_base_mergesort1599132682
	sim-bpred -bpred 2lev -bpred:2lev 1 4096 10 1 knuth_base_mergesort1599132682
	sslittle-na-sstrix-gcc -Wall -O3 -funroll-loops -finline-functions  -DRANDOM_SIZE=262144 -DSEED=0 -DSORT=knuth_base_mergesort knuth_base_mergesort91700896.c simpleMain.c -o knuth_base_mergesort1599132682
	sim-cache -cache:dl1 dl1:256:32:1:l -cache:dl2 dl2:131072:32:1:l -cache:il1 il1:256:32:1:l -cache:il2 dl2 knuth_base_mergesort1599132682
	sim-cache -cache:dl1 dl1:256:32:1:l -cache:dl2 dl2:65536:32:1:l -cache:il1 il1:256:32:1:l -cache:il2 dl2 knuth_base_mergesort1599132682
	sim-cache -cache:dl1 dl1:1:32:256:l -cache:dl2 dl2:1:32:131072:l -cache:il1 il1:1:32:256:l -cache:il2 dl2 knuth_base_mergesort1599132682
	sim-cache -cache:dl1 dl1:1:32:256:l -cache:dl2 dl2:1:32:65536:l -cache:il1 il1:1:32:256:l -cache:il2 dl2 knuth_base_mergesort1599132682
	sim-bpred -bpred bimod -bpred:bimod 512 knuth_base_mergesort1599132682
	sim-bpred -bpred bimod -bpred:bimod 1024 knuth_base_mergesort1599132682
	sim-bpred -bpred bimod -bpred:bimod 2048 knuth_base_mergesort1599132682
	sim-bpred -bpred 2lev -bpred:2lev 1 512 10 1 knuth_base_mergesort1599132682
	sim-bpred -bpred 2lev -bpred:2lev 1 1024 10 1 knuth_base_mergesort1599132682
	sim-bpred -bpred 2lev -bpred:2lev 1 2048 10 1 knuth_base_mergesort1599132682
	sim-bpred -bpred 2lev -bpred:2lev 1 4096 10 1 knuth_base_mergesort1599132682
	sslittle-na-sstrix-gcc -Wall -O3 -funroll-loops -finline-functions  -DRANDOM_SIZE=524288 -DSEED=0 -DSORT=knuth_base_mergesort knuth_base_mergesort91700896.c simpleMain.c -o knuth_base_mergesort1599132682
	sim-cache -cache:dl1 dl1:256:32:1:l -cache:dl2 dl2:131072:32:1:l -cache:il1 il1:256:32:1:l -cache:il2 dl2 knuth_base_mergesort1599132682
	sim-cache -cache:dl1 dl1:256:32:1:l -cache:dl2 dl2:65536:32:1:l -cache:il1 il1:256:32:1:l -cache:il2 dl2 knuth_base_mergesort1599132682
	sim-cache -cache:dl1 dl1:1:32:256:l -cache:dl2 dl2:1:32:131072:l -cache:il1 il1:1:32:256:l -cache:il2 dl2 knuth_base_mergesort1599132682
	sim-cache -cache:dl1 dl1:1:32:256:l -cache:dl2 dl2:1:32:65536:l -cache:il1 il1:1:32:256:l -cache:il2 dl2 knuth_base_mergesort1599132682
	sim-bpred -bpred bimod -bpred:bimod 512 knuth_base_mergesort1599132682
	sim-bpred -bpred bimod -bpred:bimod 1024 knuth_base_mergesort1599132682
	sim-bpred -bpred bimod -bpred:bimod 2048 knuth_base_mergesort1599132682
	sim-bpred -bpred 2lev -bpred:2lev 1 512 10 1 knuth_base_mergesort1599132682
	sim-bpred -bpred 2lev -bpred:2lev 1 1024 10 1 knuth_base_mergesort1599132682
	sim-bpred -bpred 2lev -bpred:2lev 1 2048 10 1 knuth_base_mergesort1599132682
	sim-bpred -bpred 2lev -bpred:2lev 1 4096 10 1 knuth_base_mergesort1599132682
	sslittle-na-sstrix-gcc -Wall -O3 -funroll-loops -finline-functions  -DRANDOM_SIZE=1048576 -DSEED=0 -DSORT=knuth_base_mergesort knuth_base_mergesort91700896.c simpleMain.c -o knuth_base_mergesort1599132682
	sim-cache -cache:dl1 dl1:256:32:1:l -cache:dl2 dl2:131072:32:1:l -cache:il1 il1:256:32:1:l -cache:il2 dl2 knuth_base_mergesort1599132682
	sim-cache -cache:dl1 dl1:256:32:1:l -cache:dl2 dl2:65536:32:1:l -cache:il1 il1:256:32:1:l -cache:il2 dl2 knuth_base_mergesort1599132682
	sim-cache -cache:dl1 dl1:1:32:256:l -cache:dl2 dl2:1:32:131072:l -cache:il1 il1:1:32:256:l -cache:il2 dl2 knuth_base_mergesort1599132682
	sim-cache -cache:dl1 dl1:1:32:256:l -cache:dl2 dl2:1:32:65536:l -cache:il1 il1:1:32:256:l -cache:il2 dl2 knuth_base_mergesort1599132682
	sim-bpred -bpred bimod -bpred:bimod 512 knuth_base_mergesort1599132682
	sim-bpred -bpred bimod -bpred:bimod 1024 knuth_base_mergesort1599132682
	sim-bpred -bpred bimod -bpred:bimod 2048 knuth_base_mergesort1599132682
	sim-bpred -bpred 2lev -bpred:2lev 1 512 10 1 knuth_base_mergesort1599132682
	sim-bpred -bpred 2lev -bpred:2lev 1 1024 10 1 knuth_base_mergesort1599132682
	sim-bpred -bpred 2lev -bpred:2lev 1 2048 10 1 knuth_base_mergesort1599132682
	sim-bpred -bpred 2lev -bpred:2lev 1 4096 10 1 knuth_base_mergesort1599132682
	sslittle-na-sstrix-gcc -Wall -O3 -funroll-loops -finline-functions  -DRANDOM_SIZE=2097152 -DSEED=0 -DSORT=knuth_base_mergesort knuth_base_mergesort91700896.c simpleMain.c -o knuth_base_mergesort1599132682
	sim-cache -cache:dl1 dl1:256:32:1:l -cache:dl2 dl2:131072:32:1:l -cache:il1 il1:256:32:1:l -cache:il2 dl2 knuth_base_mergesort1599132682
	sim-cache -cache:dl1 dl1:256:32:1:l -cache:dl2 dl2:65536:32:1:l -cache:il1 il1:256:32:1:l -cache:il2 dl2 knuth_base_mergesort1599132682
	sim-cache -cache:dl1 dl1:1:32:256:l -cache:dl2 dl2:1:32:131072:l -cache:il1 il1:1:32:256:l -cache:il2 dl2 knuth_base_mergesort1599132682
	sim-cache -cache:dl1 dl1:1:32:256:l -cache:dl2 dl2:1:32:65536:l -cache:il1 il1:1:32:256:l -cache:il2 dl2 knuth_base_mergesort1599132682
	sim-bpred -bpred bimod -bpred:bimod 512 knuth_base_mergesort1599132682
	sim-bpred -bpred bimod -bpred:bimod 1024 knuth_base_mergesort1599132682
	sim-bpred -bpred bimod -bpred:bimod 2048 knuth_base_mergesort1599132682
	sim-bpred -bpred 2lev -bpred:2lev 1 512 10 1 knuth_base_mergesort1599132682
	sim-bpred -bpred 2lev -bpred:2lev 1 1024 10 1 knuth_base_mergesort1599132682
	sim-bpred -bpred 2lev -bpred:2lev 1 2048 10 1 knuth_base_mergesort1599132682
	sim-bpred -bpred 2lev -bpred:2lev 1 4096 10 1 knuth_base_mergesort1599132682
	sslittle-na-sstrix-gcc -Wall -O3 -funroll-loops -finline-functions  -DRANDOM_SIZE=4194304 -DSEED=0 -DSORT=knuth_base_mergesort knuth_base_mergesort91700896.c simpleMain.c -o knuth_base_mergesort1599132682
	sim-cache -cache:dl1 dl1:256:32:1:l -cache:dl2 dl2:131072:32:1:l -cache:il1 il1:256:32:1:l -cache:il2 dl2 knuth_base_mergesort1599132682
	sim-cache -cache:dl1 dl1:256:32:1:l -cache:dl2 dl2:65536:32:1:l -cache:il1 il1:256:32:1:l -cache:il2 dl2 knuth_base_mergesort1599132682
	sim-cache -cache:dl1 dl1:1:32:256:l -cache:dl2 dl2:1:32:131072:l -cache:il1 il1:1:32:256:l -cache:il2 dl2 knuth_base_mergesort1599132682
	sim-cache -cache:dl1 dl1:1:32:256:l -cache:dl2 dl2:1:32:65536:l -cache:il1 il1:1:32:256:l -cache:il2 dl2 knuth_base_mergesort1599132682
	sim-bpred -bpred bimod -bpred:bimod 512 knuth_base_mergesort1599132682
	sim-bpred -bpred bimod -bpred:bimod 1024 knuth_base_mergesort1599132682
	sim-bpred -bpred bimod -bpred:bimod 2048 knuth_base_mergesort1599132682
	sim-bpred -bpred 2lev -bpred:2lev 1 512 10 1 knuth_base_mergesort1599132682
	sim-bpred -bpred 2lev -bpred:2lev 1 1024 10 1 knuth_base_mergesort1599132682
	sim-bpred -bpred 2lev -bpred:2lev 1 2048 10 1 knuth_base_mergesort1599132682
	sim-bpred -bpred 2lev -bpred:2lev 1 4096 10 1 knuth_base_mergesort1599132682
