Sun Mar 21 00:12:27 2004
Run as: "./simple -c  knuth_other_base_mergesort"
-------------------------------------------------------------------------------------------------
sim-cache                                     4096 |         4096 |         4096 |         4096 |         8192 |         8192 |         8192 |         8192 |        16384 |        16384 |        16384 |        16384 |        32768 |        32768 |        32768 |        32768 |        65536 |        65536 |        65536 |        65536 |       131072 |       131072 |       131072 |       131072 |       262144 |       262144 |       262144 |       262144 |       524288 |       524288 |       524288 |       524288 |      1048576 |      1048576 |      1048576 |      1048576 |      2097152 |      2097152 |      2097152 |      2097152 |      4194304 |      4194304 |      4194304 |      4194304 |
-cache:dl1 dl1:256:32:1:l -cache:dl2 dl2:131072:32:1:l -cache:il1 il1:256:32:1:l -cache:il2 dl2
-cache:dl1 dl1:256:32:1:l -cache:dl2 dl2:65536:32:1:l -cache:il1 il1:256:32:1:l -cache:il2 dl2
-cache:dl1 dl1:1:32:256:l -cache:dl2 dl2:1:32:131072:l -cache:il1 il1:1:32:256:l -cache:il2 dl2
-cache:dl1 dl1:1:32:256:l -cache:dl2 dl2:1:32:65536:l -cache:il1 il1:1:32:256:l -cache:il2 dl2
-------------------------------------------------------------------------------------------------
sim_num_insn                                905575 |       905575 |       905575 |       905575 |      1937742 |      1937742 |      1937742 |      1937742 |      4064141 |      4064141 |      4064141 |      4064141 |      8685597 |      8685597 |      8685597 |      8685597 |     18173101 |     18173101 |     18173101 |     18173101 |     38623169 |     38623169 |     38623169 |     38623169 |     80505541 |     80505541 |     80505541 |     80505541 |    170168727 |    170168727 |    170168727 |    170168727 |    353440100 |    353440100 |    353440100 |    353440100 |    743553677 |    743553677 |    743553677 |    743553677 |   1539532066 |   1539532066 |   1539532066 |   1539532066 |
sim_num_refs                                212143 |       212143 |       212143 |       212143 |       457319 |       457319 |       457319 |       457319 |       923169 |       923169 |       923169 |       923169 |      2002419 |      2002419 |      2002419 |      2002419 |      4062344 |      4062344 |      4062344 |      4062344 |      8772141 |      8772141 |      8772141 |      8772141 |     17798325 |     17798325 |     17798325 |     17798325 |     38209955 |     38209955 |     38209955 |     38209955 |     77469860 |     77469860 |     77469860 |     77469860 |    165412769 |    165412769 |    165412769 |    165412769 |    335012427 |    335012427 |    335012427 |    335012427 |
sim_elapsed_time                                 1 |            1 |           19 |            9 |            1 |            1 |           30 |           16 |            2 |            2 |           52 |           27 |            5 |            5 |           95 |           48 |           10 |            9 |          177 |           88 |           20 |           21 |          323 |          152 |           42 |           42 |          558 |          216 |           91 |           90 |          782 |          273 |          184 |          184 |          894 |          377 |          386 |          386 |         1117 |          328 |          395 |          395 |          795 |          538 |
sim_inst_rate                          905575.0000 |  905575.0000 |   47661.8421 |  100619.4444 | 1937742.0000 | 1937742.0000 |   64591.4000 |  121108.8750 | 2032070.5000 | 2032070.5000 |   78156.5577 |  150523.7407 | 1737119.4000 | 1737119.4000 |   91427.3368 |  180949.9375 | 1817310.1000 | 2019233.4444 |  102672.8870 |  206512.5114 | 1931158.4500 | 1839198.5238 |  119576.3746 |  254099.7961 | 1916798.5952 | 1916798.5952 |  144275.1631 |  372710.8380 | 1869986.0110 | 1890763.6333 |  217607.0678 |  623328.6703 | 1920870.1087 | 1920870.1087 |  395346.8680 |  937506.8966 | 1926304.8627 | 1926304.8627 |  665670.2569 | 2266931.9421 | 3897549.5342 | 3897549.5342 | 1936518.3220 | 2861583.7658 |
il1.accesses                                905575 |       905575 |       905575 |       905575 |      1937742 |      1937742 |      1937742 |      1937742 |      4064141 |      4064141 |      4064141 |      4064141 |      8685597 |      8685597 |      8685597 |      8685597 |     18173101 |     18173101 |     18173101 |     18173101 |     38623169 |     38623169 |     38623169 |     38623169 |     80505541 |     80505541 |     80505541 |     80505541 |    170168727 |    170168727 |    170168727 |    170168727 |    353440100 |    353440100 |    353440100 |    353440100 |    743553677 |    743553677 |    743553677 |    743553677 |   1539532066 |   1539532066 |   1539532066 |   1539532066 |
il1.hits                                    905174 |       905174 |       905224 |       905224 |      1937312 |      1937312 |      1937381 |      1937381 |      4063726 |      4063726 |      4063799 |      4063799 |      8685152 |      8685152 |      8685230 |      8685230 |     18172682 |     18172682 |     18172758 |     18172758 |     38622724 |     38622724 |     38622802 |     38622802 |     80505122 |     80505122 |     80505198 |     80505198 |    170168282 |    170168282 |    170168360 |    170168360 |    353439638 |    353439638 |    353439699 |    353439699 |    743553215 |    743553215 |    743553272 |    743553272 |   1539531604 |   1539531604 |   1539531665 |   1539531665 |
il1.misses                                     401 |          401 |          351 |          351 |          430 |          430 |          361 |          361 |          415 |          415 |          342 |          342 |          445 |          445 |          367 |          367 |          419 |          419 |          343 |          343 |          445 |          445 |          367 |          367 |          419 |          419 |          343 |          343 |          445 |          445 |          367 |          367 |          462 |          462 |          401 |          401 |          462 |          462 |          405 |          405 |          462 |          462 |          401 |          401 |
il1.replacements                               192 |          192 |           95 |           95 |          221 |          221 |          105 |          105 |          219 |          219 |           86 |           86 |          229 |          229 |          111 |          111 |          223 |          223 |           87 |           87 |          229 |          229 |          111 |          111 |          223 |          223 |           87 |           87 |          229 |          229 |          111 |          111 |          224 |          224 |          145 |          145 |          224 |          224 |          149 |          149 |          224 |          224 |          145 |          145 |
il1.writebacks                                   0 |            0 |            0 |            0 |            0 |            0 |            0 |            0 |            0 |            0 |            0 |            0 |            0 |            0 |            0 |            0 |            0 |            0 |            0 |            0 |            0 |            0 |            0 |            0 |            0 |            0 |            0 |            0 |            0 |            0 |            0 |            0 |            0 |            0 |            0 |            0 |            0 |            0 |            0 |            0 |            0 |            0 |            0 |            0 |
il1.invalidations                                0 |            0 |            0 |            0 |            0 |            0 |            0 |            0 |            0 |            0 |            0 |            0 |            0 |            0 |            0 |            0 |            0 |            0 |            0 |            0 |            0 |            0 |            0 |            0 |            0 |            0 |            0 |            0 |            0 |            0 |            0 |            0 |            0 |            0 |            0 |            0 |            0 |            0 |            0 |            0 |            0 |            0 |            0 |            0 |
il1.miss_rate                               0.0004 |       0.0004 |       0.0004 |       0.0004 |       0.0002 |       0.0002 |       0.0002 |       0.0002 |       0.0001 |       0.0001 |       0.0001 |       0.0001 |       0.0001 |       0.0001 |       0.0000 |       0.0000 |       0.0000 |       0.0000 |       0.0000 |       0.0000 |       0.0000 |       0.0000 |       0.0000 |       0.0000 |       0.0000 |       0.0000 |       0.0000 |       0.0000 |       0.0000 |       0.0000 |       0.0000 |       0.0000 |       0.0000 |       0.0000 |       0.0000 |       0.0000 |       0.0000 |       0.0000 |       0.0000 |       0.0000 |       0.0000 |       0.0000 |       0.0000 |       0.0000 |
il1.repl_rate                               0.0002 |       0.0002 |       0.0001 |       0.0001 |       0.0001 |       0.0001 |       0.0001 |       0.0001 |       0.0001 |       0.0001 |       0.0000 |       0.0000 |       0.0000 |       0.0000 |       0.0000 |       0.0000 |       0.0000 |       0.0000 |       0.0000 |       0.0000 |       0.0000 |       0.0000 |       0.0000 |       0.0000 |       0.0000 |       0.0000 |       0.0000 |       0.0000 |       0.0000 |       0.0000 |       0.0000 |       0.0000 |       0.0000 |       0.0000 |       0.0000 |       0.0000 |       0.0000 |       0.0000 |       0.0000 |       0.0000 |       0.0000 |       0.0000 |       0.0000 |       0.0000 |
il1.wb_rate                                 0.0000 |       0.0000 |       0.0000 |       0.0000 |       0.0000 |       0.0000 |       0.0000 |       0.0000 |       0.0000 |       0.0000 |       0.0000 |       0.0000 |       0.0000 |       0.0000 |       0.0000 |       0.0000 |       0.0000 |       0.0000 |       0.0000 |       0.0000 |       0.0000 |       0.0000 |       0.0000 |       0.0000 |       0.0000 |       0.0000 |       0.0000 |       0.0000 |       0.0000 |       0.0000 |       0.0000 |       0.0000 |       0.0000 |       0.0000 |       0.0000 |       0.0000 |       0.0000 |       0.0000 |       0.0000 |       0.0000 |       0.0000 |       0.0000 |       0.0000 |       0.0000 |
il1.inv_rate                                0.0000 |       0.0000 |       0.0000 |       0.0000 |       0.0000 |       0.0000 |       0.0000 |       0.0000 |       0.0000 |       0.0000 |       0.0000 |       0.0000 |       0.0000 |       0.0000 |       0.0000 |       0.0000 |       0.0000 |       0.0000 |       0.0000 |       0.0000 |       0.0000 |       0.0000 |       0.0000 |       0.0000 |       0.0000 |       0.0000 |       0.0000 |       0.0000 |       0.0000 |       0.0000 |       0.0000 |       0.0000 |       0.0000 |       0.0000 |       0.0000 |       0.0000 |       0.0000 |       0.0000 |       0.0000 |       0.0000 |       0.0000 |       0.0000 |       0.0000 |       0.0000 |
dl1.accesses                                212213 |       212213 |       212213 |       212213 |       457389 |       457389 |       457389 |       457389 |       923239 |       923239 |       923239 |       923239 |      2002489 |      2002489 |      2002489 |      2002489 |      4062414 |      4062414 |      4062414 |      4062414 |      8772211 |      8772211 |      8772211 |      8772211 |     17798395 |     17798395 |     17798395 |     17798395 |     38210025 |     38210025 |     38210025 |     38210025 |     77469930 |     77469930 |     77469930 |     77469930 |    165412839 |    165412839 |    165412839 |    165412839 |    335012497 |    335012497 |    335012497 |    335012497 |
dl1.hits                                    193291 |       193291 |       198948 |       198948 |       415708 |       415708 |       427217 |       427217 |       839405 |       839405 |       863364 |       863364 |      1818966 |      1818966 |      1866812 |      1866812 |      3694606 |      3694606 |      3791530 |      3791530 |      7967404 |      7967404 |      8165365 |      8165365 |     16185621 |     16185621 |     16585174 |     16585174 |     34708895 |     34708895 |     35521898 |     35521898 |     70442362 |     70442362 |     72092989 |     72092989 |    150269310 |    150269310 |    153611232 |    153611232 |    304632651 |    304632651 |    311410147 |    311410147 |
dl1.misses                                   18922 |        18922 |        13265 |        13265 |        41681 |        41681 |        30172 |        30172 |        83834 |        83834 |        59875 |        59875 |       183523 |       183523 |       135677 |       135677 |       367808 |       367808 |       270884 |       270884 |       804807 |       804807 |       606846 |       606846 |      1612774 |      1612774 |      1213221 |      1213221 |      3501130 |      3501130 |      2688127 |      2688127 |      7027568 |      7027568 |      5376941 |      5376941 |     15143529 |     15143529 |     11801607 |     11801607 |     30379846 |     30379846 |     23602350 |     23602350 |
dl1.replacements                             18666 |        18666 |        13009 |        13009 |        41425 |        41425 |        29916 |        29916 |        83578 |        83578 |        59619 |        59619 |       183267 |       183267 |       135421 |       135421 |       367552 |       367552 |       270628 |       270628 |       804551 |       804551 |       606590 |       606590 |      1612518 |      1612518 |      1212965 |      1212965 |      3500874 |      3500874 |      2687871 |      2687871 |      7027312 |      7027312 |      5376685 |      5376685 |     15143273 |     15143273 |     11801351 |     11801351 |     30379590 |     30379590 |     23602094 |     23602094 |
dl1.writebacks                                9746 |         9746 |         6965 |         6965 |        21244 |        21244 |        15677 |        15677 |        42780 |        42780 |        31045 |        31045 |        93177 |        93177 |        69981 |        69981 |       186643 |       186643 |       139653 |       139653 |       407109 |       407109 |       311773 |       311773 |       815046 |       815046 |       623237 |       623237 |      1765449 |      1765449 |      1377245 |      1377245 |      3539701 |      3539701 |      2754953 |      2754953 |      7616087 |      7616087 |      6033889 |      6033889 |     15263288 |     15263288 |     12067465 |     12067465 |
dl1.invalidations                                0 |            0 |            0 |            0 |            0 |            0 |            0 |            0 |            0 |            0 |            0 |            0 |            0 |            0 |            0 |            0 |            0 |            0 |            0 |            0 |            0 |            0 |            0 |            0 |            0 |            0 |            0 |            0 |            0 |            0 |            0 |            0 |            0 |            0 |            0 |            0 |            0 |            0 |            0 |            0 |            0 |            0 |            0 |            0 |
dl1.miss_rate                               0.0892 |       0.0892 |       0.0625 |       0.0625 |       0.0911 |       0.0911 |       0.0660 |       0.0660 |       0.0908 |       0.0908 |       0.0649 |       0.0649 |       0.0916 |       0.0916 |       0.0678 |       0.0678 |       0.0905 |       0.0905 |       0.0667 |       0.0667 |       0.0917 |       0.0917 |       0.0692 |       0.0692 |       0.0906 |       0.0906 |       0.0682 |       0.0682 |       0.0916 |       0.0916 |       0.0704 |       0.0704 |       0.0907 |       0.0907 |       0.0694 |       0.0694 |       0.0915 |       0.0915 |       0.0713 |       0.0713 |       0.0907 |       0.0907 |       0.0705 |       0.0705 |
dl1.repl_rate                               0.0880 |       0.0880 |       0.0613 |       0.0613 |       0.0906 |       0.0906 |       0.0654 |       0.0654 |       0.0905 |       0.0905 |       0.0646 |       0.0646 |       0.0915 |       0.0915 |       0.0676 |       0.0676 |       0.0905 |       0.0905 |       0.0666 |       0.0666 |       0.0917 |       0.0917 |       0.0691 |       0.0691 |       0.0906 |       0.0906 |       0.0682 |       0.0682 |       0.0916 |       0.0916 |       0.0703 |       0.0703 |       0.0907 |       0.0907 |       0.0694 |       0.0694 |       0.0915 |       0.0915 |       0.0713 |       0.0713 |       0.0907 |       0.0907 |       0.0705 |       0.0705 |
dl1.wb_rate                                 0.0459 |       0.0459 |       0.0328 |       0.0328 |       0.0464 |       0.0464 |       0.0343 |       0.0343 |       0.0463 |       0.0463 |       0.0336 |       0.0336 |       0.0465 |       0.0465 |       0.0349 |       0.0349 |       0.0459 |       0.0459 |       0.0344 |       0.0344 |       0.0464 |       0.0464 |       0.0355 |       0.0355 |       0.0458 |       0.0458 |       0.0350 |       0.0350 |       0.0462 |       0.0462 |       0.0360 |       0.0360 |       0.0457 |       0.0457 |       0.0356 |       0.0356 |       0.0460 |       0.0460 |       0.0365 |       0.0365 |       0.0456 |       0.0456 |       0.0360 |       0.0360 |
dl1.inv_rate                                0.0000 |       0.0000 |       0.0000 |       0.0000 |       0.0000 |       0.0000 |       0.0000 |       0.0000 |       0.0000 |       0.0000 |       0.0000 |       0.0000 |       0.0000 |       0.0000 |       0.0000 |       0.0000 |       0.0000 |       0.0000 |       0.0000 |       0.0000 |       0.0000 |       0.0000 |       0.0000 |       0.0000 |       0.0000 |       0.0000 |       0.0000 |       0.0000 |       0.0000 |       0.0000 |       0.0000 |       0.0000 |       0.0000 |       0.0000 |       0.0000 |       0.0000 |       0.0000 |       0.0000 |       0.0000 |       0.0000 |       0.0000 |       0.0000 |       0.0000 |       0.0000 |
dl2.accesses                                 29069 |        29069 |        20581 |        20581 |        63355 |        63355 |        46210 |        46210 |       127029 |       127029 |        91262 |        91262 |       277145 |       277145 |       206025 |       206025 |       554870 |       554870 |       410880 |       410880 |      1212361 |      1212361 |       918986 |       918986 |      2428239 |      2428239 |      1836801 |      1836801 |      5267024 |      5267024 |      4065739 |      4065739 |     10567731 |     10567731 |      8132295 |      8132295 |     22760078 |     22760078 |     17835901 |     17835901 |     45643596 |     45643596 |     35670216 |     35670216 |
dl2.hits                                     27255 |        27255 |        18789 |        18789 |        60500 |        60500 |        43384 |        43384 |       122146 |       122146 |        86408 |        86408 |       268138 |       268138 |       197049 |       197049 |       537696 |       537696 |       393737 |       393737 |      1178777 |      1178777 |       885434 |       885434 |      2361912 |      2311014 |      1770506 |      1472242 |      5078573 |      2832118 |      3310330 |      1394247 |      5770796 |      5231414 |      2789205 |      2772760 |     11045447 |     10989735 |      6069252 |      6052868 |     22106573 |     22071489 |     12105172 |     12088788 |
dl2.misses                                    1814 |         1814 |         1792 |         1792 |         2855 |         2855 |         2826 |         2826 |         4883 |         4883 |         4854 |         4854 |         9007 |         9007 |         8976 |         8976 |        17174 |        17174 |        17143 |        17143 |        33584 |        33584 |        33552 |        33552 |        66327 |       117225 |        66295 |       364559 |       188451 |      2434906 |       755409 |      2671492 |      4796935 |      5336317 |      5343090 |      5359535 |     11714631 |     11770343 |     11766649 |     11783033 |     23537023 |     23572107 |     23565044 |     23581428 |
dl2.replacements                               296 |          296 |            0 |            0 |          312 |          312 |            0 |            0 |          293 |          293 |            0 |            0 |          320 |          320 |            0 |            0 |          296 |          296 |            0 |            0 |          321 |          321 |            0 |            0 |          297 |        52738 |            0 |       299023 |        58427 |      2369370 |       624337 |      2605956 |      4665863 |      5270781 |      5212018 |      5293999 |     11583559 |     11704807 |     11635577 |     11717497 |     23405951 |     23506571 |     23433972 |     23515892 |
dl2.writebacks                                 197 |          197 |            0 |            0 |          212 |          212 |            0 |            0 |          194 |          194 |            0 |            0 |          220 |          220 |            0 |            0 |          196 |          196 |            0 |            0 |          220 |          220 |            0 |            0 |          196 |        28979 |            0 |       298475 |        32604 |      1313151 |       623770 |      1343945 |      2709723 |      2711798 |      2688189 |      2720958 |      5902942 |      5968904 |      5965763 |      5998531 |     11978103 |     12022699 |     11996609 |     12029377 |
dl2.invalidations                                0 |            0 |            0 |            0 |            0 |            0 |            0 |            0 |            0 |            0 |            0 |            0 |            0 |            0 |            0 |            0 |            0 |            0 |            0 |            0 |            0 |            0 |            0 |            0 |            0 |            0 |            0 |            0 |            0 |            0 |            0 |            0 |            0 |            0 |            0 |            0 |            0 |            0 |            0 |            0 |            0 |            0 |            0 |            0 |
dl2.miss_rate                               0.0624 |       0.0624 |       0.0871 |       0.0871 |       0.0451 |       0.0451 |       0.0612 |       0.0612 |       0.0384 |       0.0384 |       0.0532 |       0.0532 |       0.0325 |       0.0325 |       0.0436 |       0.0436 |       0.0310 |       0.0310 |       0.0417 |       0.0417 |       0.0277 |       0.0277 |       0.0365 |       0.0365 |       0.0273 |       0.0483 |       0.0361 |       0.1985 |       0.0358 |       0.4623 |       0.1858 |       0.6571 |       0.4539 |       0.5050 |       0.6570 |       0.6590 |       0.5147 |       0.5171 |       0.6597 |       0.6606 |       0.5157 |       0.5164 |       0.6606 |       0.6611 |
dl2.repl_rate                               0.0102 |       0.0102 |       0.0000 |       0.0000 |       0.0049 |       0.0049 |       0.0000 |       0.0000 |       0.0023 |       0.0023 |       0.0000 |       0.0000 |       0.0012 |       0.0012 |       0.0000 |       0.0000 |       0.0005 |       0.0005 |       0.0000 |       0.0000 |       0.0003 |       0.0003 |       0.0000 |       0.0000 |       0.0001 |       0.0217 |       0.0000 |       0.1628 |       0.0111 |       0.4498 |       0.1536 |       0.6410 |       0.4415 |       0.4988 |       0.6409 |       0.6510 |       0.5089 |       0.5143 |       0.6524 |       0.6570 |       0.5128 |       0.5150 |       0.6570 |       0.6593 |
dl2.wb_rate                                 0.0068 |       0.0068 |       0.0000 |       0.0000 |       0.0033 |       0.0033 |       0.0000 |       0.0000 |       0.0015 |       0.0015 |       0.0000 |       0.0000 |       0.0008 |       0.0008 |       0.0000 |       0.0000 |       0.0004 |       0.0004 |       0.0000 |       0.0000 |       0.0002 |       0.0002 |       0.0000 |       0.0000 |       0.0001 |       0.0119 |       0.0000 |       0.1625 |       0.0062 |       0.2493 |       0.1534 |       0.3306 |       0.2564 |       0.2566 |       0.3306 |       0.3346 |       0.2594 |       0.2623 |       0.3345 |       0.3363 |       0.2624 |       0.2634 |       0.3363 |       0.3372 |
dl2.inv_rate                                0.0000 |       0.0000 |       0.0000 |       0.0000 |       0.0000 |       0.0000 |       0.0000 |       0.0000 |       0.0000 |       0.0000 |       0.0000 |       0.0000 |       0.0000 |       0.0000 |       0.0000 |       0.0000 |       0.0000 |       0.0000 |       0.0000 |       0.0000 |       0.0000 |       0.0000 |       0.0000 |       0.0000 |       0.0000 |       0.0000 |       0.0000 |       0.0000 |       0.0000 |       0.0000 |       0.0000 |       0.0000 |       0.0000 |       0.0000 |       0.0000 |       0.0000 |       0.0000 |       0.0000 |       0.0000 |       0.0000 |       0.0000 |       0.0000 |       0.0000 |       0.0000 |
itlb.accesses                               905575 |       905575 |       905575 |       905575 |      1937742 |      1937742 |      1937742 |      1937742 |      4064141 |      4064141 |      4064141 |      4064141 |      8685597 |      8685597 |      8685597 |      8685597 |     18173101 |     18173101 |     18173101 |     18173101 |     38623169 |     38623169 |     38623169 |     38623169 |     80505541 |     80505541 |     80505541 |     80505541 |    170168727 |    170168727 |    170168727 |    170168727 |    353440100 |    353440100 |    353440100 |    353440100 |    743553677 |    743553677 |    743553677 |    743553677 |   1539532066 |   1539532066 |   1539532066 |   1539532066 |
itlb.hits                                   905568 |       905568 |       905568 |       905568 |      1937735 |      1937735 |      1937735 |      1937735 |      4064134 |      4064134 |      4064134 |      4064134 |      8685590 |      8685590 |      8685590 |      8685590 |     18173094 |     18173094 |     18173094 |     18173094 |     38623162 |     38623162 |     38623162 |     38623162 |     80505534 |     80505534 |     80505534 |     80505534 |    170168720 |    170168720 |    170168720 |    170168720 |    353440093 |    353440093 |    353440093 |    353440093 |    743553670 |    743553670 |    743553670 |    743553670 |   1539532059 |   1539532059 |   1539532059 |   1539532059 |
itlb.misses                                      7 |            7 |            7 |            7 |            7 |            7 |            7 |            7 |            7 |            7 |            7 |            7 |            7 |            7 |            7 |            7 |            7 |            7 |            7 |            7 |            7 |            7 |            7 |            7 |            7 |            7 |            7 |            7 |            7 |            7 |            7 |            7 |            7 |            7 |            7 |            7 |            7 |            7 |            7 |            7 |            7 |            7 |            7 |            7 |
itlb.replacements                                0 |            0 |            0 |            0 |            0 |            0 |            0 |            0 |            0 |            0 |            0 |            0 |            0 |            0 |            0 |            0 |            0 |            0 |            0 |            0 |            0 |            0 |            0 |            0 |            0 |            0 |            0 |            0 |            0 |            0 |            0 |            0 |            0 |            0 |            0 |            0 |            0 |            0 |            0 |            0 |            0 |            0 |            0 |            0 |
itlb.writebacks                                  0 |            0 |            0 |            0 |            0 |            0 |            0 |            0 |            0 |            0 |            0 |            0 |            0 |            0 |            0 |            0 |            0 |            0 |            0 |            0 |            0 |            0 |            0 |            0 |            0 |            0 |            0 |            0 |            0 |            0 |            0 |            0 |            0 |            0 |            0 |            0 |            0 |            0 |            0 |            0 |            0 |            0 |            0 |            0 |
itlb.invalidations                               0 |            0 |            0 |            0 |            0 |            0 |            0 |            0 |            0 |            0 |            0 |            0 |            0 |            0 |            0 |            0 |            0 |            0 |            0 |            0 |            0 |            0 |            0 |            0 |            0 |            0 |            0 |            0 |            0 |            0 |            0 |            0 |            0 |            0 |            0 |            0 |            0 |            0 |            0 |            0 |            0 |            0 |            0 |            0 |
itlb.miss_rate                              0.0000 |       0.0000 |       0.0000 |       0.0000 |       0.0000 |       0.0000 |       0.0000 |       0.0000 |       0.0000 |       0.0000 |       0.0000 |       0.0000 |       0.0000 |       0.0000 |       0.0000 |       0.0000 |       0.0000 |       0.0000 |       0.0000 |       0.0000 |       0.0000 |       0.0000 |       0.0000 |       0.0000 |       0.0000 |       0.0000 |       0.0000 |       0.0000 |       0.0000 |       0.0000 |       0.0000 |       0.0000 |       0.0000 |       0.0000 |       0.0000 |       0.0000 |       0.0000 |       0.0000 |       0.0000 |       0.0000 |       0.0000 |       0.0000 |       0.0000 |       0.0000 |
itlb.repl_rate                              0.0000 |       0.0000 |       0.0000 |       0.0000 |       0.0000 |       0.0000 |       0.0000 |       0.0000 |       0.0000 |       0.0000 |       0.0000 |       0.0000 |       0.0000 |       0.0000 |       0.0000 |       0.0000 |       0.0000 |       0.0000 |       0.0000 |       0.0000 |       0.0000 |       0.0000 |       0.0000 |       0.0000 |       0.0000 |       0.0000 |       0.0000 |       0.0000 |       0.0000 |       0.0000 |       0.0000 |       0.0000 |       0.0000 |       0.0000 |       0.0000 |       0.0000 |       0.0000 |       0.0000 |       0.0000 |       0.0000 |       0.0000 |       0.0000 |       0.0000 |       0.0000 |
itlb.wb_rate                                0.0000 |       0.0000 |       0.0000 |       0.0000 |       0.0000 |       0.0000 |       0.0000 |       0.0000 |       0.0000 |       0.0000 |       0.0000 |       0.0000 |       0.0000 |       0.0000 |       0.0000 |       0.0000 |       0.0000 |       0.0000 |       0.0000 |       0.0000 |       0.0000 |       0.0000 |       0.0000 |       0.0000 |       0.0000 |       0.0000 |       0.0000 |       0.0000 |       0.0000 |       0.0000 |       0.0000 |       0.0000 |       0.0000 |       0.0000 |       0.0000 |       0.0000 |       0.0000 |       0.0000 |       0.0000 |       0.0000 |       0.0000 |       0.0000 |       0.0000 |       0.0000 |
itlb.inv_rate                               0.0000 |       0.0000 |       0.0000 |       0.0000 |       0.0000 |       0.0000 |       0.0000 |       0.0000 |       0.0000 |       0.0000 |       0.0000 |       0.0000 |       0.0000 |       0.0000 |       0.0000 |       0.0000 |       0.0000 |       0.0000 |       0.0000 |       0.0000 |       0.0000 |       0.0000 |       0.0000 |       0.0000 |       0.0000 |       0.0000 |       0.0000 |       0.0000 |       0.0000 |       0.0000 |       0.0000 |       0.0000 |       0.0000 |       0.0000 |       0.0000 |       0.0000 |       0.0000 |       0.0000 |       0.0000 |       0.0000 |       0.0000 |       0.0000 |       0.0000 |       0.0000 |
dtlb.accesses                               212213 |       212213 |       212213 |       212213 |       457389 |       457389 |       457389 |       457389 |       923239 |       923239 |       923239 |       923239 |      2002489 |      2002489 |      2002489 |      2002489 |      4062414 |      4062414 |      4062414 |      4062414 |      8772211 |      8772211 |      8772211 |      8772211 |     17798395 |     17798395 |     17798395 |     17798395 |     38210025 |     38210025 |     38210025 |     38210025 |     77469930 |     77469930 |     77469930 |     77469930 |    165412839 |    165412839 |    165412839 |    165412839 |    335012497 |    335012497 |    335012497 |    335012497 |
dtlb.hits                                   212199 |       212199 |       212199 |       212199 |       457367 |       457367 |       457367 |       457367 |       923201 |       923201 |       923201 |       923201 |      2002419 |      2002419 |      2002419 |      2002419 |      4062205 |      4062205 |      4062205 |      4062205 |      8767523 |      8767523 |      8767523 |      8767523 |     17788925 |     17788925 |     17788925 |     17788925 |     38189026 |     38189026 |     38189026 |     38189026 |     77427925 |     77427925 |     77427925 |     77427925 |    165320628 |    165320628 |    165320628 |    165320628 |    334828069 |    334828069 |    334828069 |    334828069 |
dtlb.misses                                     14 |           14 |           14 |           14 |           22 |           22 |           22 |           22 |           38 |           38 |           38 |           38 |           70 |           70 |           70 |           70 |          209 |          209 |          209 |          209 |         4688 |         4688 |         4688 |         4688 |         9470 |         9470 |         9470 |         9470 |        20999 |        20999 |        20999 |        20999 |        42005 |        42005 |        42005 |        42005 |        92211 |        92211 |        92211 |        92211 |       184428 |       184428 |       184428 |       184428 |
dtlb.replacements                                0 |            0 |            0 |            0 |            0 |            0 |            0 |            0 |            0 |            0 |            0 |            0 |            0 |            0 |            0 |            0 |           81 |           81 |           81 |           81 |         4560 |         4560 |         4560 |         4560 |         9342 |         9342 |         9342 |         9342 |        20871 |        20871 |        20871 |        20871 |        41877 |        41877 |        41877 |        41877 |        92083 |        92083 |        92083 |        92083 |       184300 |       184300 |       184300 |       184300 |
dtlb.writebacks                                  0 |            0 |            0 |            0 |            0 |            0 |            0 |            0 |            0 |            0 |            0 |            0 |            0 |            0 |            0 |            0 |           46 |           46 |           46 |           46 |         2386 |         2386 |         2386 |         2386 |         4818 |         4818 |         4818 |         4818 |        10715 |        10715 |        10715 |        10715 |        21480 |        21480 |        21480 |        21480 |        47109 |        47109 |        47109 |        47109 |        94266 |        94266 |        94266 |        94266 |
dtlb.invalidations                               0 |            0 |            0 |            0 |            0 |            0 |            0 |            0 |            0 |            0 |            0 |            0 |            0 |            0 |            0 |            0 |            0 |            0 |            0 |            0 |            0 |            0 |            0 |            0 |            0 |            0 |            0 |            0 |            0 |            0 |            0 |            0 |            0 |            0 |            0 |            0 |            0 |            0 |            0 |            0 |            0 |            0 |            0 |            0 |
dtlb.miss_rate                              0.0001 |       0.0001 |       0.0001 |       0.0001 |       0.0000 |       0.0000 |       0.0000 |       0.0000 |       0.0000 |       0.0000 |       0.0000 |       0.0000 |       0.0000 |       0.0000 |       0.0000 |       0.0000 |       0.0001 |       0.0001 |       0.0001 |       0.0001 |       0.0005 |       0.0005 |       0.0005 |       0.0005 |       0.0005 |       0.0005 |       0.0005 |       0.0005 |       0.0005 |       0.0005 |       0.0005 |       0.0005 |       0.0005 |       0.0005 |       0.0005 |       0.0005 |       0.0006 |       0.0006 |       0.0006 |       0.0006 |       0.0006 |       0.0006 |       0.0006 |       0.0006 |
dtlb.repl_rate                              0.0000 |       0.0000 |       0.0000 |       0.0000 |       0.0000 |       0.0000 |       0.0000 |       0.0000 |       0.0000 |       0.0000 |       0.0000 |       0.0000 |       0.0000 |       0.0000 |       0.0000 |       0.0000 |       0.0000 |       0.0000 |       0.0000 |       0.0000 |       0.0005 |       0.0005 |       0.0005 |       0.0005 |       0.0005 |       0.0005 |       0.0005 |       0.0005 |       0.0005 |       0.0005 |       0.0005 |       0.0005 |       0.0005 |       0.0005 |       0.0005 |       0.0005 |       0.0006 |       0.0006 |       0.0006 |       0.0006 |       0.0006 |       0.0006 |       0.0006 |       0.0006 |
dtlb.wb_rate                                0.0000 |       0.0000 |       0.0000 |       0.0000 |       0.0000 |       0.0000 |       0.0000 |       0.0000 |       0.0000 |       0.0000 |       0.0000 |       0.0000 |       0.0000 |       0.0000 |       0.0000 |       0.0000 |       0.0000 |       0.0000 |       0.0000 |       0.0000 |       0.0003 |       0.0003 |       0.0003 |       0.0003 |       0.0003 |       0.0003 |       0.0003 |       0.0003 |       0.0003 |       0.0003 |       0.0003 |       0.0003 |       0.0003 |       0.0003 |       0.0003 |       0.0003 |       0.0003 |       0.0003 |       0.0003 |       0.0003 |       0.0003 |       0.0003 |       0.0003 |       0.0003 |
dtlb.inv_rate                               0.0000 |       0.0000 |       0.0000 |       0.0000 |       0.0000 |       0.0000 |       0.0000 |       0.0000 |       0.0000 |       0.0000 |       0.0000 |       0.0000 |       0.0000 |       0.0000 |       0.0000 |       0.0000 |       0.0000 |       0.0000 |       0.0000 |       0.0000 |       0.0000 |       0.0000 |       0.0000 |       0.0000 |       0.0000 |       0.0000 |       0.0000 |       0.0000 |       0.0000 |       0.0000 |       0.0000 |       0.0000 |       0.0000 |       0.0000 |       0.0000 |       0.0000 |       0.0000 |       0.0000 |       0.0000 |       0.0000 |       0.0000 |       0.0000 |       0.0000 |       0.0000 |
ld_text_base                            0x00400000 |   0x00400000 |   0x00400000 |   0x00400000 |   0x00400000 |   0x00400000 |   0x00400000 |   0x00400000 |   0x00400000 |   0x00400000 |   0x00400000 |   0x00400000 |   0x00400000 |   0x00400000 |   0x00400000 |   0x00400000 |   0x00400000 |   0x00400000 |   0x00400000 |   0x00400000 |   0x00400000 |   0x00400000 |   0x00400000 |   0x00400000 |   0x00400000 |   0x00400000 |   0x00400000 |   0x00400000 |   0x00400000 |   0x00400000 |   0x00400000 |   0x00400000 |   0x00400000 |   0x00400000 |   0x00400000 |   0x00400000 |   0x00400000 |   0x00400000 |   0x00400000 |   0x00400000 |   0x00400000 |   0x00400000 |   0x00400000 |   0x00400000 |
ld_text_size                                 26272 |        26272 |        26272 |        26272 |        26304 |        26304 |        26304 |        26304 |        26320 |        26320 |        26320 |        26320 |        26352 |        26352 |        26352 |        26352 |        26352 |        26352 |        26352 |        26352 |        26352 |        26352 |        26352 |        26352 |        26352 |        26352 |        26352 |        26352 |        26352 |        26352 |        26352 |        26352 |        26352 |        26352 |        26352 |        26352 |        26352 |        26352 |        26352 |        26352 |        26352 |        26352 |        26352 |        26352 |
ld_data_base                            0x10000000 |   0x10000000 |   0x10000000 |   0x10000000 |   0x10000000 |   0x10000000 |   0x10000000 |   0x10000000 |   0x10000000 |   0x10000000 |   0x10000000 |   0x10000000 |   0x10000000 |   0x10000000 |   0x10000000 |   0x10000000 |   0x10000000 |   0x10000000 |   0x10000000 |   0x10000000 |   0x10000000 |   0x10000000 |   0x10000000 |   0x10000000 |   0x10000000 |   0x10000000 |   0x10000000 |   0x10000000 |   0x10000000 |   0x10000000 |   0x10000000 |   0x10000000 |   0x10000000 |   0x10000000 |   0x10000000 |   0x10000000 |   0x10000000 |   0x10000000 |   0x10000000 |   0x10000000 |   0x10000000 |   0x10000000 |   0x10000000 |   0x10000000 |
ld_data_size                                  4096 |         4096 |         4096 |         4096 |         4096 |         4096 |         4096 |         4096 |         4096 |         4096 |         4096 |         4096 |         4096 |         4096 |         4096 |         4096 |         4096 |         4096 |         4096 |         4096 |         4096 |         4096 |         4096 |         4096 |         4096 |         4096 |         4096 |         4096 |         4096 |         4096 |         4096 |         4096 |         4096 |         4096 |         4096 |         4096 |         4096 |         4096 |         4096 |         4096 |         4096 |         4096 |         4096 |         4096 |
ld_stack_base                           0x7fffc000 |   0x7fffc000 |   0x7fffc000 |   0x7fffc000 |   0x7fffc000 |   0x7fffc000 |   0x7fffc000 |   0x7fffc000 |   0x7fffc000 |   0x7fffc000 |   0x7fffc000 |   0x7fffc000 |   0x7fffc000 |   0x7fffc000 |   0x7fffc000 |   0x7fffc000 |   0x7fffc000 |   0x7fffc000 |   0x7fffc000 |   0x7fffc000 |   0x7fffc000 |   0x7fffc000 |   0x7fffc000 |   0x7fffc000 |   0x7fffc000 |   0x7fffc000 |   0x7fffc000 |   0x7fffc000 |   0x7fffc000 |   0x7fffc000 |   0x7fffc000 |   0x7fffc000 |   0x7fffc000 |   0x7fffc000 |   0x7fffc000 |   0x7fffc000 |   0x7fffc000 |   0x7fffc000 |   0x7fffc000 |   0x7fffc000 |   0x7fffc000 |   0x7fffc000 |   0x7fffc000 |   0x7fffc000 |
ld_stack_size                                16384 |        16384 |        16384 |        16384 |        16384 |        16384 |        16384 |        16384 |        16384 |        16384 |        16384 |        16384 |        16384 |        16384 |        16384 |        16384 |        16384 |        16384 |        16384 |        16384 |        16384 |        16384 |        16384 |        16384 |        16384 |        16384 |        16384 |        16384 |        16384 |        16384 |        16384 |        16384 |        16384 |        16384 |        16384 |        16384 |        16384 |        16384 |        16384 |        16384 |        16384 |        16384 |        16384 |        16384 |
ld_prog_entry                           0x00400140 |   0x00400140 |   0x00400140 |   0x00400140 |   0x00400140 |   0x00400140 |   0x00400140 |   0x00400140 |   0x00400140 |   0x00400140 |   0x00400140 |   0x00400140 |   0x00400140 |   0x00400140 |   0x00400140 |   0x00400140 |   0x00400140 |   0x00400140 |   0x00400140 |   0x00400140 |   0x00400140 |   0x00400140 |   0x00400140 |   0x00400140 |   0x00400140 |   0x00400140 |   0x00400140 |   0x00400140 |   0x00400140 |   0x00400140 |   0x00400140 |   0x00400140 |   0x00400140 |   0x00400140 |   0x00400140 |   0x00400140 |   0x00400140 |   0x00400140 |   0x00400140 |   0x00400140 |   0x00400140 |   0x00400140 |   0x00400140 |   0x00400140 |
ld_environ_base                         0x7fff8000 |   0x7fff8000 |   0x7fff8000 |   0x7fff8000 |   0x7fff8000 |   0x7fff8000 |   0x7fff8000 |   0x7fff8000 |   0x7fff8000 |   0x7fff8000 |   0x7fff8000 |   0x7fff8000 |   0x7fff8000 |   0x7fff8000 |   0x7fff8000 |   0x7fff8000 |   0x7fff8000 |   0x7fff8000 |   0x7fff8000 |   0x7fff8000 |   0x7fff8000 |   0x7fff8000 |   0x7fff8000 |   0x7fff8000 |   0x7fff8000 |   0x7fff8000 |   0x7fff8000 |   0x7fff8000 |   0x7fff8000 |   0x7fff8000 |   0x7fff8000 |   0x7fff8000 |   0x7fff8000 |   0x7fff8000 |   0x7fff8000 |   0x7fff8000 |   0x7fff8000 |   0x7fff8000 |   0x7fff8000 |   0x7fff8000 |   0x7fff8000 |   0x7fff8000 |   0x7fff8000 |   0x7fff8000 |
ld_target_big_endian                             0 |            0 |            0 |            0 |            0 |            0 |            0 |            0 |            0 |            0 |            0 |            0 |            0 |            0 |            0 |            0 |            0 |            0 |            0 |            0 |            0 |            0 |            0 |            0 |            0 |            0 |            0 |            0 |            0 |            0 |            0 |            0 |            0 |            0 |            0 |            0 |            0 |            0 |            0 |            0 |            0 |            0 |            0 |            0 |
mem.page_count                                  21 |           21 |           21 |           21 |           29 |           29 |           29 |           29 |           45 |           45 |           45 |           45 |           77 |           77 |           77 |           77 |          141 |          141 |          141 |          141 |          269 |          269 |          269 |          269 |          525 |          525 |          525 |          525 |         1037 |         1037 |         1037 |         1037 |         2067 |         2067 |         2067 |         2067 |         4121 |         4121 |         4121 |         4121 |         8229 |         8229 |         8229 |         8229 |
mem.page_mem                                   84k |          84k |          84k |          84k |         116k |         116k |         116k |         116k |         180k |         180k |         180k |         180k |         308k |         308k |         308k |         308k |         564k |         564k |         564k |         564k |        1076k |        1076k |        1076k |        1076k |        2100k |        2100k |        2100k |        2100k |        4148k |        4148k |        4148k |        4148k |        8268k |        8268k |        8268k |        8268k |       16484k |       16484k |       16484k |       16484k |       32916k |       32916k |       32916k |       32916k |
mem.ptab_misses                                 21 |           21 |           21 |           21 |           29 |           29 |           29 |           29 |           45 |           45 |           45 |           45 |           77 |           77 |           77 |           77 |          141 |          141 |          141 |          141 |          269 |          269 |          269 |          269 |          525 |          525 |          525 |          525 |         1037 |         1037 |         1037 |         1037 |        62734 |        62734 |        62734 |        62734 |        68524 |        68524 |        68524 |        68524 |        74596 |        74596 |        74596 |        74596 |
mem.ptab_accesses                          4209602 |      4209602 |      4209602 |      4209602 |      8828814 |      8828814 |      8828814 |      8828814 |     18266206 |     18266206 |     18266206 |     18266206 |     38910722 |     38910722 |     38910722 |     38910722 |     80980588 |     80980588 |     80980588 |     80980588 |    172200454 |    172200454 |    172200454 |    172200454 |    357782310 |    357782310 |    357782310 |    357782310 |    757258314 |    757258314 |    757258314 |    757258314 |   1568863616 |   1568863616 |   1568863616 |   1568863616 |   3305203742 |   3305203742 |   3305203742 |   3305203742 |   6828316614 |   6828316614 |   6828316614 |   6828316614 |
mem.ptab_miss_rate                          0.0000 |       0.0000 |       0.0000 |       0.0000 |       0.0000 |       0.0000 |       0.0000 |       0.0000 |       0.0000 |       0.0000 |       0.0000 |       0.0000 |       0.0000 |       0.0000 |       0.0000 |       0.0000 |       0.0000 |       0.0000 |       0.0000 |       0.0000 |       0.0000 |       0.0000 |       0.0000 |       0.0000 |       0.0000 |       0.0000 |       0.0000 |       0.0000 |       0.0000 |       0.0000 |       0.0000 |       0.0000 |       0.0000 |       0.0000 |       0.0000 |       0.0000 |       0.0000 |       0.0000 |       0.0000 |       0.0000 |       0.0000 |       0.0000 |       0.0000 |       0.0000 |
-------------------------------------------------------------------------------------------------
sim-bpred                                     4096 |         4096 |         4096 |         4096 |         4096 |         4096 |         4096 |         8192 |         8192 |         8192 |         8192 |         8192 |         8192 |         8192 |        16384 |        16384 |        16384 |        16384 |        16384 |        16384 |        16384 |        32768 |        32768 |        32768 |        32768 |        32768 |        32768 |        32768 |        65536 |        65536 |        65536 |        65536 |        65536 |        65536 |        65536 |       131072 |       131072 |       131072 |       131072 |       131072 |       131072 |       131072 |       262144 |       262144 |       262144 |       262144 |       262144 |       262144 |       262144 |       524288 |       524288 |       524288 |       524288 |       524288 |       524288 |       524288 |      1048576 |      1048576 |      1048576 |      1048576 |      1048576 |      1048576 |      1048576 |      2097152 |      2097152 |      2097152 |      2097152 |      2097152 |      2097152 |      2097152 |      4194304 |      4194304 |      4194304 |      4194304 |      4194304 |      4194304 |      4194304 |
-bpred bimod -bpred:bimod 512
-bpred bimod -bpred:bimod 1024
-bpred bimod -bpred:bimod 2048
-bpred 2lev -bpred:2lev 1 512 10 1
-bpred 2lev -bpred:2lev 1 1024 10 1
-bpred 2lev -bpred:2lev 1 2048 10 1
-bpred 2lev -bpred:2lev 1 4096 10 1
-------------------------------------------------------------------------------------------------
sim_num_insn                                905575 |       905575 |       905575 |       905575 |       905575 |       905575 |       905575 |      1937742 |      1937742 |      1937742 |      1937742 |      1937742 |      1937742 |      1937742 |      4064141 |      4064141 |      4064141 |      4064141 |      4064141 |      4064141 |      4064141 |      8685597 |      8685597 |      8685597 |      8685597 |      8685597 |      8685597 |      8685597 |     18173101 |     18173101 |     18173101 |     18173101 |     18173101 |     18173101 |     18173101 |     38623169 |     38623169 |     38623169 |     38623169 |     38623169 |     38623169 |     38623169 |     80505541 |     80505541 |     80505541 |     80505541 |     80505541 |     80505541 |     80505541 |    170168727 |    170168727 |    170168727 |    170168727 |    170168727 |    170168727 |    170168727 |    353440100 |    353440100 |    353440100 |    353440100 |    353440100 |    353440100 |    353440100 |    743553677 |    743553677 |    743553677 |    743553677 |    743553677 |    743553677 |    743553677 |   1539532066 |   1539532066 |   1539532066 |   1539532066 |   1539532066 |   1539532066 |   1539532066 |
sim_num_refs                                212143 |       212143 |       212143 |       212143 |       212143 |       212143 |       212143 |       457319 |       457319 |       457319 |       457319 |       457319 |       457319 |       457319 |       923169 |       923169 |       923169 |       923169 |       923169 |       923169 |       923169 |      2002419 |      2002419 |      2002419 |      2002419 |      2002419 |      2002419 |      2002419 |      4062344 |      4062344 |      4062344 |      4062344 |      4062344 |      4062344 |      4062344 |      8772141 |      8772141 |      8772141 |      8772141 |      8772141 |      8772141 |      8772141 |     17798325 |     17798325 |     17798325 |     17798325 |     17798325 |     17798325 |     17798325 |     38209955 |     38209955 |     38209955 |     38209955 |     38209955 |     38209955 |     38209955 |     77469860 |     77469860 |     77469860 |     77469860 |     77469860 |     77469860 |     77469860 |    165412769 |    165412769 |    165412769 |    165412769 |    165412769 |    165412769 |    165412769 |    335012427 |    335012427 |    335012427 |    335012427 |    335012427 |    335012427 |    335012427 |
sim_elapsed_time                                 1 |            1 |            1 |            1 |            1 |            1 |            1 |            1 |            1 |            1 |            1 |            1 |            1 |            1 |            1 |            1 |            1 |            1 |            1 |            1 |            1 |            2 |            2 |            2 |            2 |            2 |            2 |            2 |            4 |            4 |            4 |            4 |            5 |            4 |            4 |            9 |            9 |            9 |            9 |            9 |            9 |            8 |           18 |           18 |           18 |           19 |           18 |           19 |           18 |           39 |           39 |           39 |           39 |           39 |           39 |           40 |           80 |           79 |           80 |           80 |           81 |           80 |           81 |           83 |           83 |           83 |           84 |           85 |           84 |           84 |          172 |          173 |          172 |          175 |          174 |          174 |          176 |
sim_inst_rate                          905575.0000 |  905575.0000 |  905575.0000 |  905575.0000 |  905575.0000 |  905575.0000 |  905575.0000 | 1937742.0000 | 1937742.0000 | 1937742.0000 | 1937742.0000 | 1937742.0000 | 1937742.0000 | 1937742.0000 | 4064141.0000 | 4064141.0000 | 4064141.0000 | 4064141.0000 | 4064141.0000 | 4064141.0000 | 4064141.0000 | 4342798.5000 | 4342798.5000 | 4342798.5000 | 4342798.5000 | 4342798.5000 | 4342798.5000 | 4342798.5000 | 4543275.2500 | 4543275.2500 | 4543275.2500 | 4543275.2500 | 3634620.2000 | 4543275.2500 | 4543275.2500 | 4291463.2222 | 4291463.2222 | 4291463.2222 | 4291463.2222 | 4291463.2222 | 4291463.2222 | 4827896.1250 | 4472530.0556 | 4472530.0556 | 4472530.0556 | 4237133.7368 | 4472530.0556 | 4237133.7368 | 4472530.0556 | 4363300.6923 | 4363300.6923 | 4363300.6923 | 4363300.6923 | 4363300.6923 | 4363300.6923 | 4254218.1750 | 4418001.2500 | 4473925.3165 | 4418001.2500 | 4418001.2500 | 4363458.0247 | 4418001.2500 | 4363458.0247 | 8958478.0361 | 8958478.0361 | 8958478.0361 | 8851829.4881 | 8747690.3176 | 8851829.4881 | 8851829.4881 | 8950767.8256 | 8899029.2832 | 8950767.8256 | 8797326.0914 | 8847885.4368 | 8847885.4368 | 8747341.2841 |
sim_num_branches                            140403 |       140403 |       140403 |       140403 |       140403 |       140403 |       140403 |       295533 |       295533 |       295533 |       295533 |       295533 |       295533 |       295533 |       619289 |       619289 |       619289 |       619289 |       619289 |       619289 |       619289 |      1305400 |      1305400 |      1305400 |      1305400 |      1305400 |      1305400 |      1305400 |      2730768 |      2730768 |      2730768 |      2730768 |      2730768 |      2730768 |      2730768 |      5737182 |      5737182 |      5737182 |      5737182 |      5737182 |      5737182 |      5737182 |     11962981 |     11962981 |     11962981 |     11962981 |     11962981 |     11962981 |     11962981 |     25037532 |     25037532 |     25037532 |     25037532 |     25037532 |     25037532 |     25037532 |     52038790 |     52038790 |     52038790 |     52038790 |     52038790 |     52038790 |     52038790 |    108531288 |    108531288 |    108531288 |    108531288 |    108531288 |    108531288 |    108531288 |    224925577 |    224925577 |    224925577 |    224925577 |    224925577 |    224925577 |    224925577 |
sim_IPB                                     6.4498 |       6.4498 |       6.4498 |       6.4498 |       6.4498 |       6.4498 |       6.4498 |       6.5568 |       6.5568 |       6.5568 |       6.5568 |       6.5568 |       6.5568 |       6.5568 |       6.5626 |       6.5626 |       6.5626 |       6.5626 |       6.5626 |       6.5626 |       6.5626 |       6.6536 |       6.6536 |       6.6536 |       6.6536 |       6.6536 |       6.6536 |       6.6536 |       6.6549 |       6.6549 |       6.6549 |       6.6549 |       6.6549 |       6.6549 |       6.6549 |       6.7321 |       6.7321 |       6.7321 |       6.7321 |       6.7321 |       6.7321 |       6.7321 |       6.7296 |       6.7296 |       6.7296 |       6.7296 |       6.7296 |       6.7296 |       6.7296 |       6.7965 |       6.7965 |       6.7965 |       6.7965 |       6.7965 |       6.7965 |       6.7965 |       6.7919 |       6.7919 |       6.7919 |       6.7919 |       6.7919 |       6.7919 |       6.7919 |       6.8511 |       6.8511 |       6.8511 |       6.8511 |       6.8511 |       6.8511 |       6.8511 |       6.8446 |       6.8446 |       6.8446 |       6.8446 |       6.8446 |       6.8446 |       6.8446 |
bpred_bimod.lookups                         140403 |       140403 |       140403 |xxxxxxxxxxxxx |xxxxxxxxxxxxx |xxxxxxxxxxxxx |xxxxxxxxxxxxx |       295533 |       295533 |       295533 |xxxxxxxxxxxxx |xxxxxxxxxxxxx |xxxxxxxxxxxxx |xxxxxxxxxxxxx |       619289 |       619289 |       619289 |xxxxxxxxxxxxx |xxxxxxxxxxxxx |xxxxxxxxxxxxx |xxxxxxxxxxxxx |      1305400 |      1305400 |      1305400 |xxxxxxxxxxxxx |xxxxxxxxxxxxx |xxxxxxxxxxxxx |xxxxxxxxxxxxx |      2730768 |      2730768 |      2730768 |xxxxxxxxxxxxx |xxxxxxxxxxxxx |xxxxxxxxxxxxx |xxxxxxxxxxxxx |      5737182 |      5737182 |      5737182 |xxxxxxxxxxxxx |xxxxxxxxxxxxx |xxxxxxxxxxxxx |xxxxxxxxxxxxx |     11962981 |     11962981 |     11962981 |xxxxxxxxxxxxx |xxxxxxxxxxxxx |xxxxxxxxxxxxx |xxxxxxxxxxxxx |     25037532 |     25037532 |     25037532 |xxxxxxxxxxxxx |xxxxxxxxxxxxx |xxxxxxxxxxxxx |xxxxxxxxxxxxx |     52038790 |     52038790 |     52038790 |xxxxxxxxxxxxx |xxxxxxxxxxxxx |xxxxxxxxxxxxx |xxxxxxxxxxxxx |    108531288 |    108531288 |    108531288 |xxxxxxxxxxxxx |xxxxxxxxxxxxx |xxxxxxxxxxxxx |xxxxxxxxxxxxx |    224925577 |    224925577 |    224925577 |
bpred_bimod.updates                         140403 |       140403 |       140403 |xxxxxxxxxxxxx |xxxxxxxxxxxxx |xxxxxxxxxxxxx |xxxxxxxxxxxxx |       295533 |       295533 |       295533 |xxxxxxxxxxxxx |xxxxxxxxxxxxx |xxxxxxxxxxxxx |xxxxxxxxxxxxx |       619289 |       619289 |       619289 |xxxxxxxxxxxxx |xxxxxxxxxxxxx |xxxxxxxxxxxxx |xxxxxxxxxxxxx |      1305400 |      1305400 |      1305400 |xxxxxxxxxxxxx |xxxxxxxxxxxxx |xxxxxxxxxxxxx |xxxxxxxxxxxxx |      2730768 |      2730768 |      2730768 |xxxxxxxxxxxxx |xxxxxxxxxxxxx |xxxxxxxxxxxxx |xxxxxxxxxxxxx |      5737182 |      5737182 |      5737182 |xxxxxxxxxxxxx |xxxxxxxxxxxxx |xxxxxxxxxxxxx |xxxxxxxxxxxxx |     11962981 |     11962981 |     11962981 |xxxxxxxxxxxxx |xxxxxxxxxxxxx |xxxxxxxxxxxxx |xxxxxxxxxxxxx |     25037532 |     25037532 |     25037532 |xxxxxxxxxxxxx |xxxxxxxxxxxxx |xxxxxxxxxxxxx |xxxxxxxxxxxxx |     52038790 |     52038790 |     52038790 |xxxxxxxxxxxxx |xxxxxxxxxxxxx |xxxxxxxxxxxxx |xxxxxxxxxxxxx |    108531288 |    108531288 |    108531288 |xxxxxxxxxxxxx |xxxxxxxxxxxxx |xxxxxxxxxxxxx |xxxxxxxxxxxxx |    224925577 |    224925577 |    224925577 |
bpred_bimod.addr_hits                       113901 |       113899 |       113901 |xxxxxxxxxxxxx |xxxxxxxxxxxxx |xxxxxxxxxxxxx |xxxxxxxxxxxxx |       239049 |       239048 |       239050 |xxxxxxxxxxxxx |xxxxxxxxxxxxx |xxxxxxxxxxxxx |xxxxxxxxxxxxx |       497962 |       497962 |       497964 |xxxxxxxxxxxxx |xxxxxxxxxxxxx |xxxxxxxxxxxxx |xxxxxxxxxxxxx |      1046247 |      1046246 |      1046248 |xxxxxxxxxxxxx |xxxxxxxxxxxxx |xxxxxxxxxxxxx |xxxxxxxxxxxxx |      2181219 |      2181218 |      2181220 |xxxxxxxxxxxxx |xxxxxxxxxxxxx |xxxxxxxxxxxxx |xxxxxxxxxxxxx |      4570926 |      4570925 |      4570927 |xxxxxxxxxxxxx |xxxxxxxxxxxxx |xxxxxxxxxxxxx |xxxxxxxxxxxxx |      9499393 |      9499392 |      9499394 |xxxxxxxxxxxxx |xxxxxxxxxxxxx |xxxxxxxxxxxxx |xxxxxxxxxxxxx |     19847377 |     19847376 |     19847378 |xxxxxxxxxxxxx |xxxxxxxxxxxxx |xxxxxxxxxxxxx |xxxxxxxxxxxxx |     41136836 |     41136835 |     41136837 |xxxxxxxxxxxxx |xxxxxxxxxxxxx |xxxxxxxxxxxxx |xxxxxxxxxxxxx |     85676468 |     85676467 |     85676469 |xxxxxxxxxxxxx |xxxxxxxxxxxxx |xxxxxxxxxxxxx |xxxxxxxxxxxxx |    177121573 |    177121572 |    177121574 |
bpred_bimod.dir_hits                        114008 |       114006 |       114007 |xxxxxxxxxxxxx |xxxxxxxxxxxxx |xxxxxxxxxxxxx |xxxxxxxxxxxxx |       239166 |       239165 |       239166 |xxxxxxxxxxxxx |xxxxxxxxxxxxx |xxxxxxxxxxxxx |xxxxxxxxxxxxx |       498075 |       498075 |       498075 |xxxxxxxxxxxxx |xxxxxxxxxxxxx |xxxxxxxxxxxxx |xxxxxxxxxxxxx |      1046364 |      1046363 |      1046365 |xxxxxxxxxxxxx |xxxxxxxxxxxxx |xxxxxxxxxxxxx |xxxxxxxxxxxxx |      2181331 |      2181330 |      2181331 |xxxxxxxxxxxxx |xxxxxxxxxxxxx |xxxxxxxxxxxxx |xxxxxxxxxxxxx |      4571043 |      4571042 |      4571043 |xxxxxxxxxxxxx |xxxxxxxxxxxxx |xxxxxxxxxxxxx |xxxxxxxxxxxxx |      9499503 |      9499502 |      9499504 |xxxxxxxxxxxxx |xxxxxxxxxxxxx |xxxxxxxxxxxxx |xxxxxxxxxxxxx |     19847494 |     19847493 |     19847494 |xxxxxxxxxxxxx |xxxxxxxxxxxxx |xxxxxxxxxxxxx |xxxxxxxxxxxxx |     41136959 |     41136957 |     41136958 |xxxxxxxxxxxxx |xxxxxxxxxxxxx |xxxxxxxxxxxxx |xxxxxxxxxxxxx |     85676592 |     85676590 |     85676591 |xxxxxxxxxxxxx |xxxxxxxxxxxxx |xxxxxxxxxxxxx |xxxxxxxxxxxxx |    177121695 |    177121693 |    177121695 |
bpred_bimod.misses                           26395 |        26397 |        26396 |xxxxxxxxxxxxx |xxxxxxxxxxxxx |xxxxxxxxxxxxx |xxxxxxxxxxxxx |        56367 |        56368 |        56367 |xxxxxxxxxxxxx |xxxxxxxxxxxxx |xxxxxxxxxxxxx |xxxxxxxxxxxxx |       121214 |       121214 |       121214 |xxxxxxxxxxxxx |xxxxxxxxxxxxx |xxxxxxxxxxxxx |xxxxxxxxxxxxx |       259036 |       259037 |       259035 |xxxxxxxxxxxxx |xxxxxxxxxxxxx |xxxxxxxxxxxxx |xxxxxxxxxxxxx |       549437 |       549438 |       549437 |xxxxxxxxxxxxx |xxxxxxxxxxxxx |xxxxxxxxxxxxx |xxxxxxxxxxxxx |      1166139 |      1166140 |      1166139 |xxxxxxxxxxxxx |xxxxxxxxxxxxx |xxxxxxxxxxxxx |xxxxxxxxxxxxx |      2463478 |      2463479 |      2463477 |xxxxxxxxxxxxx |xxxxxxxxxxxxx |xxxxxxxxxxxxx |xxxxxxxxxxxxx |      5190038 |      5190039 |      5190038 |xxxxxxxxxxxxx |xxxxxxxxxxxxx |xxxxxxxxxxxxx |xxxxxxxxxxxxx |     10901831 |     10901833 |     10901832 |xxxxxxxxxxxxx |xxxxxxxxxxxxx |xxxxxxxxxxxxx |xxxxxxxxxxxxx |     22854696 |     22854698 |     22854697 |xxxxxxxxxxxxx |xxxxxxxxxxxxx |xxxxxxxxxxxxx |xxxxxxxxxxxxx |     47803882 |     47803884 |     47803882 |
bpred_bimod.jr_hits                           8557 |         8557 |         8557 |xxxxxxxxxxxxx |xxxxxxxxxxxxx |xxxxxxxxxxxxx |xxxxxxxxxxxxx |        16759 |        16759 |        16759 |xxxxxxxxxxxxx |xxxxxxxxxxxxx |xxxxxxxxxxxxx |xxxxxxxxxxxxx |        33141 |        33141 |        33141 |xxxxxxxxxxxxx |xxxxxxxxxxxxx |xxxxxxxxxxxxx |xxxxxxxxxxxxx |        65911 |        65911 |        65911 |xxxxxxxxxxxxx |xxxxxxxxxxxxx |xxxxxxxxxxxxx |xxxxxxxxxxxxx |       131445 |       131445 |       131445 |xxxxxxxxxxxxx |xxxxxxxxxxxxx |xxxxxxxxxxxxx |xxxxxxxxxxxxx |       262519 |       262519 |       262519 |xxxxxxxxxxxxx |xxxxxxxxxxxxx |xxxxxxxxxxxxx |xxxxxxxxxxxxx |       524661 |       524661 |       524661 |xxxxxxxxxxxxx |xxxxxxxxxxxxx |xxxxxxxxxxxxx |xxxxxxxxxxxxx |      1048951 |      1048951 |      1048951 |xxxxxxxxxxxxx |xxxxxxxxxxxxx |xxxxxxxxxxxxx |xxxxxxxxxxxxx |      2097528 |      2097528 |      2097528 |xxxxxxxxxxxxx |xxxxxxxxxxxxx |xxxxxxxxxxxxx |xxxxxxxxxxxxx |      4194683 |      4194683 |      4194683 |xxxxxxxxxxxxx |xxxxxxxxxxxxx |xxxxxxxxxxxxx |xxxxxxxxxxxxx |      8388984 |      8388984 |      8388984 |
bpred_bimod.jr_seen                           8557 |         8557 |         8557 |xxxxxxxxxxxxx |xxxxxxxxxxxxx |xxxxxxxxxxxxx |xxxxxxxxxxxxx |        16761 |        16761 |        16761 |xxxxxxxxxxxxx |xxxxxxxxxxxxx |xxxxxxxxxxxxx |xxxxxxxxxxxxx |        33142 |        33142 |        33142 |xxxxxxxxxxxxx |xxxxxxxxxxxxx |xxxxxxxxxxxxx |xxxxxxxxxxxxx |        65913 |        65913 |        65913 |xxxxxxxxxxxxx |xxxxxxxxxxxxx |xxxxxxxxxxxxx |xxxxxxxxxxxxx |       131446 |       131446 |       131446 |xxxxxxxxxxxxx |xxxxxxxxxxxxx |xxxxxxxxxxxxx |xxxxxxxxxxxxx |       262521 |       262521 |       262521 |xxxxxxxxxxxxx |xxxxxxxxxxxxx |xxxxxxxxxxxxx |xxxxxxxxxxxxx |       524662 |       524662 |       524662 |xxxxxxxxxxxxx |xxxxxxxxxxxxx |xxxxxxxxxxxxx |xxxxxxxxxxxxx |      1048953 |      1048953 |      1048953 |xxxxxxxxxxxxx |xxxxxxxxxxxxx |xxxxxxxxxxxxx |xxxxxxxxxxxxx |      2097529 |      2097529 |      2097529 |xxxxxxxxxxxxx |xxxxxxxxxxxxx |xxxxxxxxxxxxx |xxxxxxxxxxxxx |      4194684 |      4194684 |      4194684 |xxxxxxxxxxxxx |xxxxxxxxxxxxx |xxxxxxxxxxxxx |xxxxxxxxxxxxx |      8388985 |      8388985 |      8388985 |
bpred_bimod.jr_non_ras_hits.PP                   0 |            0 |            0 |xxxxxxxxxxxxx |xxxxxxxxxxxxx |xxxxxxxxxxxxx |xxxxxxxxxxxxx |            0 |            0 |            0 |xxxxxxxxxxxxx |xxxxxxxxxxxxx |xxxxxxxxxxxxx |xxxxxxxxxxxxx |            0 |            0 |            0 |xxxxxxxxxxxxx |xxxxxxxxxxxxx |xxxxxxxxxxxxx |xxxxxxxxxxxxx |            0 |            0 |            0 |xxxxxxxxxxxxx |xxxxxxxxxxxxx |xxxxxxxxxxxxx |xxxxxxxxxxxxx |            0 |            0 |            0 |xxxxxxxxxxxxx |xxxxxxxxxxxxx |xxxxxxxxxxxxx |xxxxxxxxxxxxx |            0 |            0 |            0 |xxxxxxxxxxxxx |xxxxxxxxxxxxx |xxxxxxxxxxxxx |xxxxxxxxxxxxx |            0 |            0 |            0 |xxxxxxxxxxxxx |xxxxxxxxxxxxx |xxxxxxxxxxxxx |xxxxxxxxxxxxx |            0 |            0 |            0 |xxxxxxxxxxxxx |xxxxxxxxxxxxx |xxxxxxxxxxxxx |xxxxxxxxxxxxx |            0 |            0 |            0 |xxxxxxxxxxxxx |xxxxxxxxxxxxx |xxxxxxxxxxxxx |xxxxxxxxxxxxx |            1 |            1 |            1 |xxxxxxxxxxxxx |xxxxxxxxxxxxx |xxxxxxxxxxxxx |xxxxxxxxxxxxx |            0 |            0 |            0 |
bpred_bimod.jr_non_ras_seen.PP                   0 |            0 |            0 |xxxxxxxxxxxxx |xxxxxxxxxxxxx |xxxxxxxxxxxxx |xxxxxxxxxxxxx |            1 |            1 |            1 |xxxxxxxxxxxxx |xxxxxxxxxxxxx |xxxxxxxxxxxxx |xxxxxxxxxxxxx |            0 |            0 |            0 |xxxxxxxxxxxxx |xxxxxxxxxxxxx |xxxxxxxxxxxxx |xxxxxxxxxxxxx |            1 |            1 |            1 |xxxxxxxxxxxxx |xxxxxxxxxxxxx |xxxxxxxxxxxxx |xxxxxxxxxxxxx |            0 |            0 |            0 |xxxxxxxxxxxxx |xxxxxxxxxxxxx |xxxxxxxxxxxxx |xxxxxxxxxxxxx |            1 |            1 |            1 |xxxxxxxxxxxxx |xxxxxxxxxxxxx |xxxxxxxxxxxxx |xxxxxxxxxxxxx |            0 |            0 |            0 |xxxxxxxxxxxxx |xxxxxxxxxxxxx |xxxxxxxxxxxxx |xxxxxxxxxxxxx |            1 |            1 |            1 |xxxxxxxxxxxxx |xxxxxxxxxxxxx |xxxxxxxxxxxxx |xxxxxxxxxxxxx |            1 |            1 |            1 |xxxxxxxxxxxxx |xxxxxxxxxxxxx |xxxxxxxxxxxxx |xxxxxxxxxxxxx |            2 |            2 |            2 |xxxxxxxxxxxxx |xxxxxxxxxxxxx |xxxxxxxxxxxxx |xxxxxxxxxxxxx |            1 |            1 |            1 |
bpred_bimod.bpred_addr_rate                 0.8112 |       0.8112 |       0.8112 |xxxxxxxxxxxxx |xxxxxxxxxxxxx |xxxxxxxxxxxxx |xxxxxxxxxxxxx |       0.8089 |       0.8089 |       0.8089 |xxxxxxxxxxxxx |xxxxxxxxxxxxx |xxxxxxxxxxxxx |xxxxxxxxxxxxx |       0.8041 |       0.8041 |       0.8041 |xxxxxxxxxxxxx |xxxxxxxxxxxxx |xxxxxxxxxxxxx |xxxxxxxxxxxxx |       0.8015 |       0.8015 |       0.8015 |xxxxxxxxxxxxx |xxxxxxxxxxxxx |xxxxxxxxxxxxx |xxxxxxxxxxxxx |       0.7988 |       0.7988 |       0.7988 |xxxxxxxxxxxxx |xxxxxxxxxxxxx |xxxxxxxxxxxxx |xxxxxxxxxxxxx |       0.7967 |       0.7967 |       0.7967 |xxxxxxxxxxxxx |xxxxxxxxxxxxx |xxxxxxxxxxxxx |xxxxxxxxxxxxx |       0.7941 |       0.7941 |       0.7941 |xxxxxxxxxxxxx |xxxxxxxxxxxxx |xxxxxxxxxxxxx |xxxxxxxxxxxxx |       0.7927 |       0.7927 |       0.7927 |xxxxxxxxxxxxx |xxxxxxxxxxxxx |xxxxxxxxxxxxx |xxxxxxxxxxxxx |       0.7905 |       0.7905 |       0.7905 |xxxxxxxxxxxxx |xxxxxxxxxxxxx |xxxxxxxxxxxxx |xxxxxxxxxxxxx |       0.7894 |       0.7894 |       0.7894 |xxxxxxxxxxxxx |xxxxxxxxxxxxx |xxxxxxxxxxxxx |xxxxxxxxxxxxx |       0.7875 |       0.7875 |       0.7875 |
bpred_bimod.bpred_dir_rate                  0.8120 |       0.8120 |       0.8120 |xxxxxxxxxxxxx |xxxxxxxxxxxxx |xxxxxxxxxxxxx |xxxxxxxxxxxxx |       0.8093 |       0.8093 |       0.8093 |xxxxxxxxxxxxx |xxxxxxxxxxxxx |xxxxxxxxxxxxx |xxxxxxxxxxxxx |       0.8043 |       0.8043 |       0.8043 |xxxxxxxxxxxxx |xxxxxxxxxxxxx |xxxxxxxxxxxxx |xxxxxxxxxxxxx |       0.8016 |       0.8016 |       0.8016 |xxxxxxxxxxxxx |xxxxxxxxxxxxx |xxxxxxxxxxxxx |xxxxxxxxxxxxx |       0.7988 |       0.7988 |       0.7988 |xxxxxxxxxxxxx |xxxxxxxxxxxxx |xxxxxxxxxxxxx |xxxxxxxxxxxxx |       0.7967 |       0.7967 |       0.7967 |xxxxxxxxxxxxx |xxxxxxxxxxxxx |xxxxxxxxxxxxx |xxxxxxxxxxxxx |       0.7941 |       0.7941 |       0.7941 |xxxxxxxxxxxxx |xxxxxxxxxxxxx |xxxxxxxxxxxxx |xxxxxxxxxxxxx |       0.7927 |       0.7927 |       0.7927 |xxxxxxxxxxxxx |xxxxxxxxxxxxx |xxxxxxxxxxxxx |xxxxxxxxxxxxx |       0.7905 |       0.7905 |       0.7905 |xxxxxxxxxxxxx |xxxxxxxxxxxxx |xxxxxxxxxxxxx |xxxxxxxxxxxxx |       0.7894 |       0.7894 |       0.7894 |xxxxxxxxxxxxx |xxxxxxxxxxxxx |xxxxxxxxxxxxx |xxxxxxxxxxxxx |       0.7875 |       0.7875 |       0.7875 |
bpred_bimod.bpred_jr_rate                   1.0000 |       1.0000 |       1.0000 |xxxxxxxxxxxxx |xxxxxxxxxxxxx |xxxxxxxxxxxxx |xxxxxxxxxxxxx |       0.9999 |       0.9999 |       0.9999 |xxxxxxxxxxxxx |xxxxxxxxxxxxx |xxxxxxxxxxxxx |xxxxxxxxxxxxx |       1.0000 |       1.0000 |       1.0000 |xxxxxxxxxxxxx |xxxxxxxxxxxxx |xxxxxxxxxxxxx |xxxxxxxxxxxxx |       1.0000 |       1.0000 |       1.0000 |xxxxxxxxxxxxx |xxxxxxxxxxxxx |xxxxxxxxxxxxx |xxxxxxxxxxxxx |       1.0000 |       1.0000 |       1.0000 |xxxxxxxxxxxxx |xxxxxxxxxxxxx |xxxxxxxxxxxxx |xxxxxxxxxxxxx |       1.0000 |       1.0000 |       1.0000 |xxxxxxxxxxxxx |xxxxxxxxxxxxx |xxxxxxxxxxxxx |xxxxxxxxxxxxx |       1.0000 |       1.0000 |       1.0000 |xxxxxxxxxxxxx |xxxxxxxxxxxxx |xxxxxxxxxxxxx |xxxxxxxxxxxxx |       1.0000 |       1.0000 |       1.0000 |xxxxxxxxxxxxx |xxxxxxxxxxxxx |xxxxxxxxxxxxx |xxxxxxxxxxxxx |       1.0000 |       1.0000 |       1.0000 |xxxxxxxxxxxxx |xxxxxxxxxxxxx |xxxxxxxxxxxxx |xxxxxxxxxxxxx |       1.0000 |       1.0000 |       1.0000 |xxxxxxxxxxxxx |xxxxxxxxxxxxx |xxxxxxxxxxxxx |xxxxxxxxxxxxx |       1.0000 |       1.0000 |       1.0000 |
bpred_bimod.bpred_jr_non_ras_rate.PP       <error: |      <error: |      <error: |xxxxxxxxxxxxx |xxxxxxxxxxxxx |xxxxxxxxxxxxx |xxxxxxxxxxxxx |       0.0000 |       0.0000 |       0.0000 |xxxxxxxxxxxxx |xxxxxxxxxxxxx |xxxxxxxxxxxxx |xxxxxxxxxxxxx |      <error: |      <error: |      <error: |xxxxxxxxxxxxx |xxxxxxxxxxxxx |xxxxxxxxxxxxx |xxxxxxxxxxxxx |       0.0000 |       0.0000 |       0.0000 |xxxxxxxxxxxxx |xxxxxxxxxxxxx |xxxxxxxxxxxxx |xxxxxxxxxxxxx |      <error: |      <error: |      <error: |xxxxxxxxxxxxx |xxxxxxxxxxxxx |xxxxxxxxxxxxx |xxxxxxxxxxxxx |       0.0000 |       0.0000 |       0.0000 |xxxxxxxxxxxxx |xxxxxxxxxxxxx |xxxxxxxxxxxxx |xxxxxxxxxxxxx |      <error: |      <error: |      <error: |xxxxxxxxxxxxx |xxxxxxxxxxxxx |xxxxxxxxxxxxx |xxxxxxxxxxxxx |       0.0000 |       0.0000 |       0.0000 |xxxxxxxxxxxxx |xxxxxxxxxxxxx |xxxxxxxxxxxxx |xxxxxxxxxxxxx |       0.0000 |       0.0000 |       0.0000 |xxxxxxxxxxxxx |xxxxxxxxxxxxx |xxxxxxxxxxxxx |xxxxxxxxxxxxx |       0.5000 |       0.5000 |       0.5000 |xxxxxxxxxxxxx |xxxxxxxxxxxxx |xxxxxxxxxxxxx |xxxxxxxxxxxxx |       0.0000 |       0.0000 |       0.0000 |
bpred_bimod.retstack_pushes                   8559 |         8559 |         8559 |xxxxxxxxxxxxx |xxxxxxxxxxxxx |xxxxxxxxxxxxx |xxxxxxxxxxxxx |        16762 |        16762 |        16762 |xxxxxxxxxxxxx |xxxxxxxxxxxxx |xxxxxxxxxxxxx |xxxxxxxxxxxxx |        33144 |        33144 |        33144 |xxxxxxxxxxxxx |xxxxxxxxxxxxx |xxxxxxxxxxxxx |xxxxxxxxxxxxx |        65914 |        65914 |        65914 |xxxxxxxxxxxxx |xxxxxxxxxxxxx |xxxxxxxxxxxxx |xxxxxxxxxxxxx |       131448 |       131448 |       131448 |xxxxxxxxxxxxx |xxxxxxxxxxxxx |xxxxxxxxxxxxx |xxxxxxxxxxxxx |       262522 |       262522 |       262522 |xxxxxxxxxxxxx |xxxxxxxxxxxxx |xxxxxxxxxxxxx |xxxxxxxxxxxxx |       524664 |       524664 |       524664 |xxxxxxxxxxxxx |xxxxxxxxxxxxx |xxxxxxxxxxxxx |xxxxxxxxxxxxx |      1048954 |      1048954 |      1048954 |xxxxxxxxxxxxx |xxxxxxxxxxxxx |xxxxxxxxxxxxx |xxxxxxxxxxxxx |      2097530 |      2097530 |      2097530 |xxxxxxxxxxxxx |xxxxxxxxxxxxx |xxxxxxxxxxxxx |xxxxxxxxxxxxx |      4194684 |      4194684 |      4194684 |xxxxxxxxxxxxx |xxxxxxxxxxxxx |xxxxxxxxxxxxx |xxxxxxxxxxxxx |      8388986 |      8388986 |      8388986 |
bpred_bimod.retstack_pops                     8557 |         8557 |         8557 |xxxxxxxxxxxxx |xxxxxxxxxxxxx |xxxxxxxxxxxxx |xxxxxxxxxxxxx |        16760 |        16760 |        16760 |xxxxxxxxxxxxx |xxxxxxxxxxxxx |xxxxxxxxxxxxx |xxxxxxxxxxxxx |        33142 |        33142 |        33142 |xxxxxxxxxxxxx |xxxxxxxxxxxxx |xxxxxxxxxxxxx |xxxxxxxxxxxxx |        65912 |        65912 |        65912 |xxxxxxxxxxxxx |xxxxxxxxxxxxx |xxxxxxxxxxxxx |xxxxxxxxxxxxx |       131446 |       131446 |       131446 |xxxxxxxxxxxxx |xxxxxxxxxxxxx |xxxxxxxxxxxxx |xxxxxxxxxxxxx |       262520 |       262520 |       262520 |xxxxxxxxxxxxx |xxxxxxxxxxxxx |xxxxxxxxxxxxx |xxxxxxxxxxxxx |       524662 |       524662 |       524662 |xxxxxxxxxxxxx |xxxxxxxxxxxxx |xxxxxxxxxxxxx |xxxxxxxxxxxxx |      1048952 |      1048952 |      1048952 |xxxxxxxxxxxxx |xxxxxxxxxxxxx |xxxxxxxxxxxxx |xxxxxxxxxxxxx |      2097528 |      2097528 |      2097528 |xxxxxxxxxxxxx |xxxxxxxxxxxxx |xxxxxxxxxxxxx |xxxxxxxxxxxxx |      4194682 |      4194682 |      4194682 |xxxxxxxxxxxxx |xxxxxxxxxxxxx |xxxxxxxxxxxxx |xxxxxxxxxxxxx |      8388984 |      8388984 |      8388984 |
bpred_bimod.used_ras.PP                       8557 |         8557 |         8557 |xxxxxxxxxxxxx |xxxxxxxxxxxxx |xxxxxxxxxxxxx |xxxxxxxxxxxxx |        16760 |        16760 |        16760 |xxxxxxxxxxxxx |xxxxxxxxxxxxx |xxxxxxxxxxxxx |xxxxxxxxxxxxx |        33142 |        33142 |        33142 |xxxxxxxxxxxxx |xxxxxxxxxxxxx |xxxxxxxxxxxxx |xxxxxxxxxxxxx |        65912 |        65912 |        65912 |xxxxxxxxxxxxx |xxxxxxxxxxxxx |xxxxxxxxxxxxx |xxxxxxxxxxxxx |       131446 |       131446 |       131446 |xxxxxxxxxxxxx |xxxxxxxxxxxxx |xxxxxxxxxxxxx |xxxxxxxxxxxxx |       262520 |       262520 |       262520 |xxxxxxxxxxxxx |xxxxxxxxxxxxx |xxxxxxxxxxxxx |xxxxxxxxxxxxx |       524662 |       524662 |       524662 |xxxxxxxxxxxxx |xxxxxxxxxxxxx |xxxxxxxxxxxxx |xxxxxxxxxxxxx |      1048952 |      1048952 |      1048952 |xxxxxxxxxxxxx |xxxxxxxxxxxxx |xxxxxxxxxxxxx |xxxxxxxxxxxxx |      2097528 |      2097528 |      2097528 |xxxxxxxxxxxxx |xxxxxxxxxxxxx |xxxxxxxxxxxxx |xxxxxxxxxxxxx |      4194682 |      4194682 |      4194682 |xxxxxxxxxxxxx |xxxxxxxxxxxxx |xxxxxxxxxxxxx |xxxxxxxxxxxxx |      8388984 |      8388984 |      8388984 |
bpred_bimod.ras_hits.PP                       8557 |         8557 |         8557 |xxxxxxxxxxxxx |xxxxxxxxxxxxx |xxxxxxxxxxxxx |xxxxxxxxxxxxx |        16759 |        16759 |        16759 |xxxxxxxxxxxxx |xxxxxxxxxxxxx |xxxxxxxxxxxxx |xxxxxxxxxxxxx |        33141 |        33141 |        33141 |xxxxxxxxxxxxx |xxxxxxxxxxxxx |xxxxxxxxxxxxx |xxxxxxxxxxxxx |        65911 |        65911 |        65911 |xxxxxxxxxxxxx |xxxxxxxxxxxxx |xxxxxxxxxxxxx |xxxxxxxxxxxxx |       131445 |       131445 |       131445 |xxxxxxxxxxxxx |xxxxxxxxxxxxx |xxxxxxxxxxxxx |xxxxxxxxxxxxx |       262519 |       262519 |       262519 |xxxxxxxxxxxxx |xxxxxxxxxxxxx |xxxxxxxxxxxxx |xxxxxxxxxxxxx |       524661 |       524661 |       524661 |xxxxxxxxxxxxx |xxxxxxxxxxxxx |xxxxxxxxxxxxx |xxxxxxxxxxxxx |      1048951 |      1048951 |      1048951 |xxxxxxxxxxxxx |xxxxxxxxxxxxx |xxxxxxxxxxxxx |xxxxxxxxxxxxx |      2097528 |      2097528 |      2097528 |xxxxxxxxxxxxx |xxxxxxxxxxxxx |xxxxxxxxxxxxx |xxxxxxxxxxxxx |      4194682 |      4194682 |      4194682 |xxxxxxxxxxxxx |xxxxxxxxxxxxx |xxxxxxxxxxxxx |xxxxxxxxxxxxx |      8388984 |      8388984 |      8388984 |
bpred_bimod.ras_rate.PP                     1.0000 |       1.0000 |       1.0000 |xxxxxxxxxxxxx |xxxxxxxxxxxxx |xxxxxxxxxxxxx |xxxxxxxxxxxxx |       0.9999 |       0.9999 |       0.9999 |xxxxxxxxxxxxx |xxxxxxxxxxxxx |xxxxxxxxxxxxx |xxxxxxxxxxxxx |       1.0000 |       1.0000 |       1.0000 |xxxxxxxxxxxxx |xxxxxxxxxxxxx |xxxxxxxxxxxxx |xxxxxxxxxxxxx |       1.0000 |       1.0000 |       1.0000 |xxxxxxxxxxxxx |xxxxxxxxxxxxx |xxxxxxxxxxxxx |xxxxxxxxxxxxx |       1.0000 |       1.0000 |       1.0000 |xxxxxxxxxxxxx |xxxxxxxxxxxxx |xxxxxxxxxxxxx |xxxxxxxxxxxxx |       1.0000 |       1.0000 |       1.0000 |xxxxxxxxxxxxx |xxxxxxxxxxxxx |xxxxxxxxxxxxx |xxxxxxxxxxxxx |       1.0000 |       1.0000 |       1.0000 |xxxxxxxxxxxxx |xxxxxxxxxxxxx |xxxxxxxxxxxxx |xxxxxxxxxxxxx |       1.0000 |       1.0000 |       1.0000 |xxxxxxxxxxxxx |xxxxxxxxxxxxx |xxxxxxxxxxxxx |xxxxxxxxxxxxx |       1.0000 |       1.0000 |       1.0000 |xxxxxxxxxxxxx |xxxxxxxxxxxxx |xxxxxxxxxxxxx |xxxxxxxxxxxxx |       1.0000 |       1.0000 |       1.0000 |xxxxxxxxxxxxx |xxxxxxxxxxxxx |xxxxxxxxxxxxx |xxxxxxxxxxxxx |       1.0000 |       1.0000 |       1.0000 |
bpred_2lev.lookups                   xxxxxxxxxxxxx |xxxxxxxxxxxxx |xxxxxxxxxxxxx |       140403 |       140403 |       140403 |       140403 |xxxxxxxxxxxxx |xxxxxxxxxxxxx |xxxxxxxxxxxxx |       295533 |       295533 |       295533 |       295533 |xxxxxxxxxxxxx |xxxxxxxxxxxxx |xxxxxxxxxxxxx |       619289 |       619289 |       619289 |       619289 |xxxxxxxxxxxxx |xxxxxxxxxxxxx |xxxxxxxxxxxxx |      1305400 |      1305400 |      1305400 |      1305400 |xxxxxxxxxxxxx |xxxxxxxxxxxxx |xxxxxxxxxxxxx |      2730768 |      2730768 |      2730768 |      2730768 |xxxxxxxxxxxxx |xxxxxxxxxxxxx |xxxxxxxxxxxxx |      5737182 |      5737182 |      5737182 |      5737182 |xxxxxxxxxxxxx |xxxxxxxxxxxxx |xxxxxxxxxxxxx |     11962981 |     11962981 |     11962981 |     11962981 |xxxxxxxxxxxxx |xxxxxxxxxxxxx |xxxxxxxxxxxxx |     25037532 |     25037532 |     25037532 |     25037532 |xxxxxxxxxxxxx |xxxxxxxxxxxxx |xxxxxxxxxxxxx |     52038790 |     52038790 |     52038790 |     52038790 |xxxxxxxxxxxxx |xxxxxxxxxxxxx |xxxxxxxxxxxxx |    108531288 |    108531288 |    108531288 |    108531288 |xxxxxxxxxxxxx |xxxxxxxxxxxxx |xxxxxxxxxxxxx |    224925577 |    224925577 |    224925577 |    224925577 |
[...]
bpred_2lev.retstack_pops             xxxxxxxxxxxxx |xxxxxxxxxxxxx |xxxxxxxxxxxxx |         8557 |         8557 |         8557 |         8557 |xxxxxxxxxxxxx |xxxxxxxxxxxxx |xxxxxxxxxxxxx |        16760 |        16760 |        16760 |        16760 |xxxxxxxxxxxxx |xxxxxxxxxxxxx |xxxxxxxxxxxxx |        33142 |        33142 |        33142 |        33142 |xxxxxxxxxxxxx |xxxxxxxxxxxxx |xxxxxxxxxxxxx |        65912 |        65912 |        65912 |        65912 |xxxxxxxxxxxxx |xxxxxxxxxxxxx |xxxxxxxxxxxxx |       131446 |       131446 |       131446 |       131446 |xxxxxxxxxxxxx |xxxxxxxxxxxxx |xxxxxxxxxxxxx |       262520 |       262520 |       262520 |       262520 |xxxxxxxxxxxxx |xxxxxxxxxxxxx |xxxxxxxxxxxxx |       524662 |       524662 |       524662 |       524662 |xxxxxxxxxxxxx |xxxxxxxxxxxxx |xxxxxxxxxxxxx |      1048952 |      1048952 |      1048952 |      1048952 |xxxxxxxxxxxxx |xxxxxxxxxxxxx |xxxxxxxxxxxxx |      2097528 |      2097528 |      2097528 |      2097528 |xxxxxxxxxxxxx |xxxxxxxxxxxxx |xxxxxxxxxxxxx |      4194682 |      4194682 |      4194682 |      4194682 |xxxxxxxxxxxxx |xxxxxxxxxxxxx |xxxxxxxxxxxxx |      8388984 |      8388984 |      8388984 |      8388984 |
bpred_2lev.used_ras.PP               xxxxxxxxxxxxx |xxxxxxxxxxxxx |xxxxxxxxxxxxx |         8557 |         8557 |         8557 |         8557 |xxxxxxxxxxxxx |xxxxxxxxxxxxx |xxxxxxxxxxxxx |        16760 |        16760 |        16760 |        16760 |xxxxxxxxxxxxx |xxxxxxxxxxxxx |xxxxxxxxxxxxx |        33142 |        33142 |        33142 |        33142 |xxxxxxxxxxxxx |xxxxxxxxxxxxx |xxxxxxxxxxxxx |        65912 |        65912 |        65912 |        65912 |xxxxxxxxxxxxx |xxxxxxxxxxxxx |xxxxxxxxxxxxx |       131446 |       131446 |       131446 |       131446 |xxxxxxxxxxxxx |xxxxxxxxxxxxx |xxxxxxxxxxxxx |       262520 |       262520 |       262520 |       262520 |xxxxxxxxxxxxx |xxxxxxxxxxxxx |xxxxxxxxxxxxx |       524662 |       524662 |       524662 |       524662 |xxxxxxxxxxxxx |xxxxxxxxxxxxx |xxxxxxxxxxxxx |      1048952 |      1048952 |      1048952 |      1048952 |xxxxxxxxxxxxx |xxxxxxxxxxxxx |xxxxxxxxxxxxx |      2097528 |      2097528 |      2097528 |      2097528 |xxxxxxxxxxxxx |xxxxxxxxxxxxx |xxxxxxxxxxxxx |      4194682 |      4194682 |      4194682 |      4194682 |xxxxxxxxxxxxx |xxxxxxxxxxxxx |xxxxxxxxxxxxx |      8388984 |      8388984 |      8388984 |      8388984 |
bpred_2lev.ras_hits.PP               xxxxxxxxxxxxx |xxxxxxxxxxxxx |xxxxxxxxxxxxx |         8557 |         8557 |         8557 |         8557 |xxxxxxxxxxxxx |xxxxxxxxxxxxx |xxxxxxxxxxxxx |        16759 |        16759 |        16759 |        16759 |xxxxxxxxxxxxx |xxxxxxxxxxxxx |xxxxxxxxxxxxx |        33141 |        33141 |        33141 |        33141 |xxxxxxxxxxxxx |xxxxxxxxxxxxx |xxxxxxxxxxxxx |        65911 |        65911 |        65911 |        65911 |xxxxxxxxxxxxx |xxxxxxxxxxxxx |xxxxxxxxxxxxx |       131445 |       131445 |       131445 |       131445 |xxxxxxxxxxxxx |xxxxxxxxxxxxx |xxxxxxxxxxxxx |       262519 |       262519 |       262519 |       262519 |xxxxxxxxxxxxx |xxxxxxxxxxxxx |xxxxxxxxxxxxx |       524661 |       524661 |       524661 |       524661 |xxxxxxxxxxxxx |xxxxxxxxxxxxx |xxxxxxxxxxxxx |      1048951 |      1048951 |      1048951 |      1048951 |xxxxxxxxxxxxx |xxxxxxxxxxxxx |xxxxxxxxxxxxx |      2097528 |      2097528 |      2097528 |      2097528 |xxxxxxxxxxxxx |xxxxxxxxxxxxx |xxxxxxxxxxxxx |      4194682 |      4194682 |      4194682 |      4194682 |xxxxxxxxxxxxx |xxxxxxxxxxxxx |xxxxxxxxxxxxx |      8388984 |      8388984 |      8388984 |      8388984 |
bpred_2lev.ras_rate.PP               xxxxxxxxxxxxx |xxxxxxxxxxxxx |xxxxxxxxxxxxx |       1.0000 |       1.0000 |       1.0000 |       1.0000 |xxxxxxxxxxxxx |xxxxxxxxxxxxx |xxxxxxxxxxxxx |       0.9999 |       0.9999 |       0.9999 |       0.9999 |xxxxxxxxxxxxx |xxxxxxxxxxxxx |xxxxxxxxxxxxx |       1.0000 |       1.0000 |       1.0000 |       1.0000 |xxxxxxxxxxxxx |xxxxxxxxxxxxx |xxxxxxxxxxxxx |       1.0000 |       1.0000 |       1.0000 |       1.0000 |xxxxxxxxxxxxx |xxxxxxxxxxxxx |xxxxxxxxxxxxx |       1.0000 |       1.0000 |       1.0000 |       1.0000 |xxxxxxxxxxxxx |xxxxxxxxxxxxx |xxxxxxxxxxxxx |       1.0000 |       1.0000 |       1.0000 |       1.0000 |xxxxxxxxxxxxx |xxxxxxxxxxxxx |xxxxxxxxxxxxx |       1.0000 |       1.0000 |       1.0000 |       1.0000 |xxxxxxxxxxxxx |xxxxxxxxxxxxx |xxxxxxxxxxxxx |       1.0000 |       1.0000 |       1.0000 |       1.0000 |xxxxxxxxxxxxx |xxxxxxxxxxxxx |xxxxxxxxxxxxx |       1.0000 |       1.0000 |       1.0000 |       1.0000 |xxxxxxxxxxxxx |xxxxxxxxxxxxx |xxxxxxxxxxxxx |       1.0000 |       1.0000 |       1.0000 |       1.0000 |xxxxxxxxxxxxx |xxxxxxxxxxxxx |xxxxxxxxxxxxx |       1.0000 |       1.0000 |       1.0000 |       1.0000 |

Command list: 
	sslittle-na-sstrix-gcc -Wall -O3 -funroll-loops -finline-functions  -DRANDOM_SIZE=4096 -DSEED=0 -DSORT=knuth_other_base_mergesort knuth_other_base_mergesort38715647.c simpleMain.c -o knuth_other_base_mergesort658449332
	sim-cache -cache:dl1 dl1:256:32:1:l -cache:dl2 dl2:131072:32:1:l -cache:il1 il1:256:32:1:l -cache:il2 dl2 knuth_other_base_mergesort658449332
	sim-cache -cache:dl1 dl1:256:32:1:l -cache:dl2 dl2:65536:32:1:l -cache:il1 il1:256:32:1:l -cache:il2 dl2 knuth_other_base_mergesort658449332
	sim-cache -cache:dl1 dl1:1:32:256:l -cache:dl2 dl2:1:32:131072:l -cache:il1 il1:1:32:256:l -cache:il2 dl2 knuth_other_base_mergesort658449332
	sim-cache -cache:dl1 dl1:1:32:256:l -cache:dl2 dl2:1:32:65536:l -cache:il1 il1:1:32:256:l -cache:il2 dl2 knuth_other_base_mergesort658449332
	sim-bpred -bpred bimod -bpred:bimod 512 knuth_other_base_mergesort658449332
	sim-bpred -bpred bimod -bpred:bimod 1024 knuth_other_base_mergesort658449332
	sim-bpred -bpred bimod -bpred:bimod 2048 knuth_other_base_mergesort658449332
	sim-bpred -bpred 2lev -bpred:2lev 1 512 10 1 knuth_other_base_mergesort658449332
	sim-bpred -bpred 2lev -bpred:2lev 1 1024 10 1 knuth_other_base_mergesort658449332
	sim-bpred -bpred 2lev -bpred:2lev 1 2048 10 1 knuth_other_base_mergesort658449332
	sim-bpred -bpred 2lev -bpred:2lev 1 4096 10 1 knuth_other_base_mergesort658449332
	sslittle-na-sstrix-gcc -Wall -O3 -funroll-loops -finline-functions  -DRANDOM_SIZE=8192 -DSEED=0 -DSORT=knuth_other_base_mergesort knuth_other_base_mergesort38715647.c simpleMain.c -o knuth_other_base_mergesort658449332
	sim-cache -cache:dl1 dl1:256:32:1:l -cache:dl2 dl2:131072:32:1:l -cache:il1 il1:256:32:1:l -cache:il2 dl2 knuth_other_base_mergesort658449332
	sim-cache -cache:dl1 dl1:256:32:1:l -cache:dl2 dl2:65536:32:1:l -cache:il1 il1:256:32:1:l -cache:il2 dl2 knuth_other_base_mergesort658449332
	sim-cache -cache:dl1 dl1:1:32:256:l -cache:dl2 dl2:1:32:131072:l -cache:il1 il1:1:32:256:l -cache:il2 dl2 knuth_other_base_mergesort658449332
	sim-cache -cache:dl1 dl1:1:32:256:l -cache:dl2 dl2:1:32:65536:l -cache:il1 il1:1:32:256:l -cache:il2 dl2 knuth_other_base_mergesort658449332
	sim-bpred -bpred bimod -bpred:bimod 512 knuth_other_base_mergesort658449332
	sim-bpred -bpred bimod -bpred:bimod 1024 knuth_other_base_mergesort658449332
	sim-bpred -bpred bimod -bpred:bimod 2048 knuth_other_base_mergesort658449332
	sim-bpred -bpred 2lev -bpred:2lev 1 512 10 1 knuth_other_base_mergesort658449332
	sim-bpred -bpred 2lev -bpred:2lev 1 1024 10 1 knuth_other_base_mergesort658449332
	sim-bpred -bpred 2lev -bpred:2lev 1 2048 10 1 knuth_other_base_mergesort658449332
	sim-bpred -bpred 2lev -bpred:2lev 1 4096 10 1 knuth_other_base_mergesort658449332
	sslittle-na-sstrix-gcc -Wall -O3 -funroll-loops -finline-functions  -DRANDOM_SIZE=16384 -DSEED=0 -DSORT=knuth_other_base_mergesort knuth_other_base_mergesort38715647.c simpleMain.c -o knuth_other_base_mergesort658449332
	sim-cache -cache:dl1 dl1:256:32:1:l -cache:dl2 dl2:131072:32:1:l -cache:il1 il1:256:32:1:l -cache:il2 dl2 knuth_other_base_mergesort658449332
	sim-cache -cache:dl1 dl1:256:32:1:l -cache:dl2 dl2:65536:32:1:l -cache:il1 il1:256:32:1:l -cache:il2 dl2 knuth_other_base_mergesort658449332
	sim-cache -cache:dl1 dl1:1:32:256:l -cache:dl2 dl2:1:32:131072:l -cache:il1 il1:1:32:256:l -cache:il2 dl2 knuth_other_base_mergesort658449332
	sim-cache -cache:dl1 dl1:1:32:256:l -cache:dl2 dl2:1:32:65536:l -cache:il1 il1:1:32:256:l -cache:il2 dl2 knuth_other_base_mergesort658449332
	sim-bpred -bpred bimod -bpred:bimod 512 knuth_other_base_mergesort658449332
	sim-bpred -bpred bimod -bpred:bimod 1024 knuth_other_base_mergesort658449332
	sim-bpred -bpred bimod -bpred:bimod 2048 knuth_other_base_mergesort658449332
	sim-bpred -bpred 2lev -bpred:2lev 1 512 10 1 knuth_other_base_mergesort658449332
	sim-bpred -bpred 2lev -bpred:2lev 1 1024 10 1 knuth_other_base_mergesort658449332
	sim-bpred -bpred 2lev -bpred:2lev 1 2048 10 1 knuth_other_base_mergesort658449332
	sim-bpred -bpred 2lev -bpred:2lev 1 4096 10 1 knuth_other_base_mergesort658449332
	sslittle-na-sstrix-gcc -Wall -O3 -funroll-loops -finline-functions  -DRANDOM_SIZE=32768 -DSEED=0 -DSORT=knuth_other_base_mergesort knuth_other_base_mergesort38715647.c simpleMain.c -o knuth_other_base_mergesort658449332
	sim-cache -cache:dl1 dl1:256:32:1:l -cache:dl2 dl2:131072:32:1:l -cache:il1 il1:256:32:1:l -cache:il2 dl2 knuth_other_base_mergesort658449332
	sim-cache -cache:dl1 dl1:256:32:1:l -cache:dl2 dl2:65536:32:1:l -cache:il1 il1:256:32:1:l -cache:il2 dl2 knuth_other_base_mergesort658449332
	sim-cache -cache:dl1 dl1:1:32:256:l -cache:dl2 dl2:1:32:131072:l -cache:il1 il1:1:32:256:l -cache:il2 dl2 knuth_other_base_mergesort658449332
	sim-cache -cache:dl1 dl1:1:32:256:l -cache:dl2 dl2:1:32:65536:l -cache:il1 il1:1:32:256:l -cache:il2 dl2 knuth_other_base_mergesort658449332
	sim-bpred -bpred bimod -bpred:bimod 512 knuth_other_base_mergesort658449332
	sim-bpred -bpred bimod -bpred:bimod 1024 knuth_other_base_mergesort658449332
	sim-bpred -bpred bimod -bpred:bimod 2048 knuth_other_base_mergesort658449332
	sim-bpred -bpred 2lev -bpred:2lev 1 512 10 1 knuth_other_base_mergesort658449332
	sim-bpred -bpred 2lev -bpred:2lev 1 1024 10 1 knuth_other_base_mergesort658449332
	sim-bpred -bpred 2lev -bpred:2lev 1 2048 10 1 knuth_other_base_mergesort658449332
	sim-bpred -bpred 2lev -bpred:2lev 1 4096 10 1 knuth_other_base_mergesort658449332
	sslittle-na-sstrix-gcc -Wall -O3 -funroll-loops -finline-functions  -DRANDOM_SIZE=65536 -DSEED=0 -DSORT=knuth_other_base_mergesort knuth_other_base_mergesort38715647.c simpleMain.c -o knuth_other_base_mergesort658449332
	sim-cache -cache:dl1 dl1:256:32:1:l -cache:dl2 dl2:131072:32:1:l -cache:il1 il1:256:32:1:l -cache:il2 dl2 knuth_other_base_mergesort658449332
	sim-cache -cache:dl1 dl1:256:32:1:l -cache:dl2 dl2:65536:32:1:l -cache:il1 il1:256:32:1:l -cache:il2 dl2 knuth_other_base_mergesort658449332
	sim-cache -cache:dl1 dl1:1:32:256:l -cache:dl2 dl2:1:32:131072:l -cache:il1 il1:1:32:256:l -cache:il2 dl2 knuth_other_base_mergesort658449332
	sim-cache -cache:dl1 dl1:1:32:256:l -cache:dl2 dl2:1:32:65536:l -cache:il1 il1:1:32:256:l -cache:il2 dl2 knuth_other_base_mergesort658449332
	sim-bpred -bpred bimod -bpred:bimod 512 knuth_other_base_mergesort658449332
	sim-bpred -bpred bimod -bpred:bimod 1024 knuth_other_base_mergesort658449332
	sim-bpred -bpred bimod -bpred:bimod 2048 knuth_other_base_mergesort658449332
	sim-bpred -bpred 2lev -bpred:2lev 1 512 10 1 knuth_other_base_mergesort658449332
	sim-bpred -bpred 2lev -bpred:2lev 1 1024 10 1 knuth_other_base_mergesort658449332
	sim-bpred -bpred 2lev -bpred:2lev 1 2048 10 1 knuth_other_base_mergesort658449332
	sim-bpred -bpred 2lev -bpred:2lev 1 4096 10 1 knuth_other_base_mergesort658449332
	sslittle-na-sstrix-gcc -Wall -O3 -funroll-loops -finline-functions  -DRANDOM_SIZE=131072 -DSEED=0 -DSORT=knuth_other_base_mergesort knuth_other_base_mergesort38715647.c simpleMain.c -o knuth_other_base_mergesort658449332
	sim-cache -cache:dl1 dl1:256:32:1:l -cache:dl2 dl2:131072:32:1:l -cache:il1 il1:256:32:1:l -cache:il2 dl2 knuth_other_base_mergesort658449332
	sim-cache -cache:dl1 dl1:256:32:1:l -cache:dl2 dl2:65536:32:1:l -cache:il1 il1:256:32:1:l -cache:il2 dl2 knuth_other_base_mergesort658449332
	sim-cache -cache:dl1 dl1:1:32:256:l -cache:dl2 dl2:1:32:131072:l -cache:il1 il1:1:32:256:l -cache:il2 dl2 knuth_other_base_mergesort658449332
	sim-cache -cache:dl1 dl1:1:32:256:l -cache:dl2 dl2:1:32:65536:l -cache:il1 il1:1:32:256:l -cache:il2 dl2 knuth_other_base_mergesort658449332
	sim-bpred -bpred bimod -bpred:bimod 512 knuth_other_base_mergesort658449332
	sim-bpred -bpred bimod -bpred:bimod 1024 knuth_other_base_mergesort658449332
	sim-bpred -bpred bimod -bpred:bimod 2048 knuth_other_base_mergesort658449332
	sim-bpred -bpred 2lev -bpred:2lev 1 512 10 1 knuth_other_base_mergesort658449332
	sim-bpred -bpred 2lev -bpred:2lev 1 1024 10 1 knuth_other_base_mergesort658449332
	sim-bpred -bpred 2lev -bpred:2lev 1 2048 10 1 knuth_other_base_mergesort658449332
	sim-bpred -bpred 2lev -bpred:2lev 1 4096 10 1 knuth_other_base_mergesort658449332
	sslittle-na-sstrix-gcc -Wall -O3 -funroll-loops -finline-functions  -DRANDOM_SIZE=262144 -DSEED=0 -DSORT=knuth_other_base_mergesort knuth_other_base_mergesort38715647.c simpleMain.c -o knuth_other_base_mergesort658449332
	sim-cache -cache:dl1 dl1:256:32:1:l -cache:dl2 dl2:131072:32:1:l -cache:il1 il1:256:32:1:l -cache:il2 dl2 knuth_other_base_mergesort658449332
	sim-cache -cache:dl1 dl1:256:32:1:l -cache:dl2 dl2:65536:32:1:l -cache:il1 il1:256:32:1:l -cache:il2 dl2 knuth_other_base_mergesort658449332
	sim-cache -cache:dl1 dl1:1:32:256:l -cache:dl2 dl2:1:32:131072:l -cache:il1 il1:1:32:256:l -cache:il2 dl2 knuth_other_base_mergesort658449332
	sim-cache -cache:dl1 dl1:1:32:256:l -cache:dl2 dl2:1:32:65536:l -cache:il1 il1:1:32:256:l -cache:il2 dl2 knuth_other_base_mergesort658449332
	sim-bpred -bpred bimod -bpred:bimod 512 knuth_other_base_mergesort658449332
	sim-bpred -bpred bimod -bpred:bimod 1024 knuth_other_base_mergesort658449332
	sim-bpred -bpred bimod -bpred:bimod 2048 knuth_other_base_mergesort658449332
	sim-bpred -bpred 2lev -bpred:2lev 1 512 10 1 knuth_other_base_mergesort658449332
	sim-bpred -bpred 2lev -bpred:2lev 1 1024 10 1 knuth_other_base_mergesort658449332
	sim-bpred -bpred 2lev -bpred:2lev 1 2048 10 1 knuth_other_base_mergesort658449332
	sim-bpred -bpred 2lev -bpred:2lev 1 4096 10 1 knuth_other_base_mergesort658449332
	sslittle-na-sstrix-gcc -Wall -O3 -funroll-loops -finline-functions  -DRANDOM_SIZE=524288 -DSEED=0 -DSORT=knuth_other_base_mergesort knuth_other_base_mergesort38715647.c simpleMain.c -o knuth_other_base_mergesort658449332
	sim-cache -cache:dl1 dl1:256:32:1:l -cache:dl2 dl2:131072:32:1:l -cache:il1 il1:256:32:1:l -cache:il2 dl2 knuth_other_base_mergesort658449332
	sim-cache -cache:dl1 dl1:256:32:1:l -cache:dl2 dl2:65536:32:1:l -cache:il1 il1:256:32:1:l -cache:il2 dl2 knuth_other_base_mergesort658449332
	sim-cache -cache:dl1 dl1:1:32:256:l -cache:dl2 dl2:1:32:131072:l -cache:il1 il1:1:32:256:l -cache:il2 dl2 knuth_other_base_mergesort658449332
	sim-cache -cache:dl1 dl1:1:32:256:l -cache:dl2 dl2:1:32:65536:l -cache:il1 il1:1:32:256:l -cache:il2 dl2 knuth_other_base_mergesort658449332
	sim-bpred -bpred bimod -bpred:bimod 512 knuth_other_base_mergesort658449332
	sim-bpred -bpred bimod -bpred:bimod 1024 knuth_other_base_mergesort658449332
	sim-bpred -bpred bimod -bpred:bimod 2048 knuth_other_base_mergesort658449332
	sim-bpred -bpred 2lev -bpred:2lev 1 512 10 1 knuth_other_base_mergesort658449332
	sim-bpred -bpred 2lev -bpred:2lev 1 1024 10 1 knuth_other_base_mergesort658449332
	sim-bpred -bpred 2lev -bpred:2lev 1 2048 10 1 knuth_other_base_mergesort658449332
	sim-bpred -bpred 2lev -bpred:2lev 1 4096 10 1 knuth_other_base_mergesort658449332
	sslittle-na-sstrix-gcc -Wall -O3 -funroll-loops -finline-functions  -DRANDOM_SIZE=1048576 -DSEED=0 -DSORT=knuth_other_base_mergesort knuth_other_base_mergesort38715647.c simpleMain.c -o knuth_other_base_mergesort658449332
	sim-cache -cache:dl1 dl1:256:32:1:l -cache:dl2 dl2:131072:32:1:l -cache:il1 il1:256:32:1:l -cache:il2 dl2 knuth_other_base_mergesort658449332
	sim-cache -cache:dl1 dl1:256:32:1:l -cache:dl2 dl2:65536:32:1:l -cache:il1 il1:256:32:1:l -cache:il2 dl2 knuth_other_base_mergesort658449332
	sim-cache -cache:dl1 dl1:1:32:256:l -cache:dl2 dl2:1:32:131072:l -cache:il1 il1:1:32:256:l -cache:il2 dl2 knuth_other_base_mergesort658449332
	sim-cache -cache:dl1 dl1:1:32:256:l -cache:dl2 dl2:1:32:65536:l -cache:il1 il1:1:32:256:l -cache:il2 dl2 knuth_other_base_mergesort658449332
	sim-bpred -bpred bimod -bpred:bimod 512 knuth_other_base_mergesort658449332
	sim-bpred -bpred bimod -bpred:bimod 1024 knuth_other_base_mergesort658449332
	sim-bpred -bpred bimod -bpred:bimod 2048 knuth_other_base_mergesort658449332
	sim-bpred -bpred 2lev -bpred:2lev 1 512 10 1 knuth_other_base_mergesort658449332
	sim-bpred -bpred 2lev -bpred:2lev 1 1024 10 1 knuth_other_base_mergesort658449332
	sim-bpred -bpred 2lev -bpred:2lev 1 2048 10 1 knuth_other_base_mergesort658449332
	sim-bpred -bpred 2lev -bpred:2lev 1 4096 10 1 knuth_other_base_mergesort658449332
	sslittle-na-sstrix-gcc -Wall -O3 -funroll-loops -finline-functions  -DRANDOM_SIZE=2097152 -DSEED=0 -DSORT=knuth_other_base_mergesort knuth_other_base_mergesort38715647.c simpleMain.c -o knuth_other_base_mergesort658449332
	sim-cache -cache:dl1 dl1:256:32:1:l -cache:dl2 dl2:131072:32:1:l -cache:il1 il1:256:32:1:l -cache:il2 dl2 knuth_other_base_mergesort658449332
	sim-cache -cache:dl1 dl1:256:32:1:l -cache:dl2 dl2:65536:32:1:l -cache:il1 il1:256:32:1:l -cache:il2 dl2 knuth_other_base_mergesort658449332
	sim-cache -cache:dl1 dl1:1:32:256:l -cache:dl2 dl2:1:32:131072:l -cache:il1 il1:1:32:256:l -cache:il2 dl2 knuth_other_base_mergesort658449332
	sim-cache -cache:dl1 dl1:1:32:256:l -cache:dl2 dl2:1:32:65536:l -cache:il1 il1:1:32:256:l -cache:il2 dl2 knuth_other_base_mergesort658449332
	sim-bpred -bpred bimod -bpred:bimod 512 knuth_other_base_mergesort658449332
	sim-bpred -bpred bimod -bpred:bimod 1024 knuth_other_base_mergesort658449332
	sim-bpred -bpred bimod -bpred:bimod 2048 knuth_other_base_mergesort658449332
	sim-bpred -bpred 2lev -bpred:2lev 1 512 10 1 knuth_other_base_mergesort658449332
	sim-bpred -bpred 2lev -bpred:2lev 1 1024 10 1 knuth_other_base_mergesort658449332
	sim-bpred -bpred 2lev -bpred:2lev 1 2048 10 1 knuth_other_base_mergesort658449332
	sim-bpred -bpred 2lev -bpred:2lev 1 4096 10 1 knuth_other_base_mergesort658449332
	sslittle-na-sstrix-gcc -Wall -O3 -funroll-loops -finline-functions  -DRANDOM_SIZE=4194304 -DSEED=0 -DSORT=knuth_other_base_mergesort knuth_other_base_mergesort38715647.c simpleMain.c -o knuth_other_base_mergesort658449332
	sim-cache -cache:dl1 dl1:256:32:1:l -cache:dl2 dl2:131072:32:1:l -cache:il1 il1:256:32:1:l -cache:il2 dl2 knuth_other_base_mergesort658449332
	sim-cache -cache:dl1 dl1:256:32:1:l -cache:dl2 dl2:65536:32:1:l -cache:il1 il1:256:32:1:l -cache:il2 dl2 knuth_other_base_mergesort658449332
	sim-cache -cache:dl1 dl1:1:32:256:l -cache:dl2 dl2:1:32:131072:l -cache:il1 il1:1:32:256:l -cache:il2 dl2 knuth_other_base_mergesort658449332
	sim-cache -cache:dl1 dl1:1:32:256:l -cache:dl2 dl2:1:32:65536:l -cache:il1 il1:1:32:256:l -cache:il2 dl2 knuth_other_base_mergesort658449332
	sim-bpred -bpred bimod -bpred:bimod 512 knuth_other_base_mergesort658449332
	sim-bpred -bpred bimod -bpred:bimod 1024 knuth_other_base_mergesort658449332
	sim-bpred -bpred bimod -bpred:bimod 2048 knuth_other_base_mergesort658449332
	sim-bpred -bpred 2lev -bpred:2lev 1 512 10 1 knuth_other_base_mergesort658449332
	sim-bpred -bpred 2lev -bpred:2lev 1 1024 10 1 knuth_other_base_mergesort658449332
	sim-bpred -bpred 2lev -bpred:2lev 1 2048 10 1 knuth_other_base_mergesort658449332
	sim-bpred -bpred 2lev -bpred:2lev 1 4096 10 1 knuth_other_base_mergesort658449332
