Sun Mar 14 23:27:02 2004
Run as: "./simple -c fixed multi_quicksort"
-------------------------------------------------------------------------------------------------
sim-cache                                     4096 |         4096 |         4096 |         4096 |         8192 |         8192 |         8192 |         8192 |        16384 |        16384 |        16384 |        16384 |        32768 |        32768 |        32768 |        32768 |        65536 |        65536 |        65536 |        65536 |       131072 |       131072 |       131072 |       131072 |       262144 |       262144 |       262144 |       262144 |       524288 |       524288 |       524288 |       524288 |      1048576 |      1048576 |      1048576 |      1048576 |      2097152 |      2097152 |      2097152 |      2097152 |      4194304 |      4194304 |      4194304 |      4194304 |
-cache:dl1 dl1:256:32:1:l -cache:dl2 dl2:131072:32:1:l -cache:il1 il1:256:32:1:l -cache:il2 dl2
-cache:dl1 dl1:256:32:1:l -cache:dl2 dl2:65536:32:1:l -cache:il1 il1:256:32:1:l -cache:il2 dl2
-cache:dl1 dl1:1:32:256:l -cache:dl2 dl2:1:32:131072:l -cache:il1 il1:1:32:256:l -cache:il2 dl2
-cache:dl1 dl1:1:32:256:l -cache:dl2 dl2:1:32:65536:l -cache:il1 il1:1:32:256:l -cache:il2 dl2
-------------------------------------------------------------------------------------------------
sim_num_insn                                644625 |       644625 |       644625 |       644625 |      1354570 |      1354570 |      1354570 |      1354570 |      2817316 |      2817316 |      2817316 |      2817316 |      5888146 |      5888146 |      5888146 |      5888146 |     12371318 |     12371318 |     12371318 |     12371318 |     26236464 |     26236464 |     26236464 |     26236464 |     54160644 |     54160644 |     54160644 |     54160644 |    114615132 |    114615132 |    114615132 |    114615132 |    236737222 |    236737222 |    236737222 |    236737222 |    688886627 |    688886627 |    688886627 |    688886627 |   1513636679 |   1513636679 |   1513636679 |   1513636679 |
sim_num_refs                                197277 |       197277 |       197277 |       197277 |       404098 |       404098 |       404098 |       404098 |       829894 |       829894 |       829894 |       829894 |      1718423 |      1718423 |      1718423 |      1718423 |      3570571 |      3570571 |      3570571 |      3570571 |      7456731 |      7456731 |      7456731 |      7456731 |     15367676 |     15367676 |     15367676 |     15367676 |     32044301 |     32044301 |     32044301 |     32044301 |     66009469 |     66009469 |     66009469 |     66009469 |    189593199 |    189593199 |    189593199 |    189593199 |    408496292 |    408496292 |    408496292 |    408496292 |
sim_elapsed_time                                 1 |            1 |            8 |            3 |            1 |            1 |           10 |            5 |            1 |            1 |           16 |            8 |            1 |            2 |           27 |           14 |            3 |            3 |           49 |           25 |            8 |            7 |           90 |           47 |           15 |           15 |          166 |           80 |           31 |           31 |          288 |          117 |           64 |           64 |          405 |          150 |          192 |          214 |          536 |          283 |          412 |          413 |          772 |          519 |
sim_inst_rate                          644625.0000 |  644625.0000 |   80578.1250 |  214875.0000 | 1354570.0000 | 1354570.0000 |  135457.0000 |  270914.0000 | 2817316.0000 | 2817316.0000 |  176082.2500 |  352164.5000 | 5888146.0000 | 2944073.0000 |  218079.4815 |  420581.8571 | 4123772.6667 | 4123772.6667 |  252475.8776 |  494852.7200 | 3279558.0000 | 3748066.2857 |  291516.2667 |  558222.6383 | 3610709.6000 | 3610709.6000 |  326268.9398 |  677008.0500 | 3697262.3226 | 3697262.3226 |  397969.2083 |  979616.5128 | 3699019.0938 | 3699019.0938 |  584536.3506 | 1578248.1467 | 3587951.1823 | 3219096.3879 | 1285236.2444 | 2434228.3640 | 3673875.4345 | 3664979.8523 | 1960669.2733 | 2916448.3218 |
il1.accesses                                644625 |       644625 |       644625 |       644625 |      1354570 |      1354570 |      1354570 |      1354570 |      2817316 |      2817316 |      2817316 |      2817316 |      5888146 |      5888146 |      5888146 |      5888146 |     12371318 |     12371318 |     12371318 |     12371318 |     26236464 |     26236464 |     26236464 |     26236464 |     54160644 |     54160644 |     54160644 |     54160644 |    114615132 |    114615132 |    114615132 |    114615132 |    236737222 |    236737222 |    236737222 |    236737222 |    688886627 |    688886627 |    688886627 |    688886627 |   1513636679 |   1513636679 |   1513636679 |   1513636679 |
il1.hits                                    644078 |       644078 |       644153 |       644153 |      1354023 |      1354023 |      1354094 |      1354094 |      2816786 |      2816786 |      2816866 |      2816866 |      5887614 |      5887614 |      5887695 |      5887695 |     12370786 |     12370786 |     12370867 |     12370867 |     26235932 |     26235932 |     26236013 |     26236013 |     54160112 |     54160112 |     54160193 |     54160193 |    114614600 |    114614600 |    114614681 |    114614681 |    236736690 |    236736690 |    236736771 |    236736771 |    688874462 |    688874462 |    688885941 |    688885941 |   1513613339 |   1513613339 |   1513635989 |   1513635989 |
il1.misses                                     547 |          547 |          472 |          472 |          547 |          547 |          476 |          476 |          530 |          530 |          450 |          450 |          532 |          532 |          451 |          451 |          532 |          532 |          451 |          451 |          532 |          532 |          451 |          451 |          532 |          532 |          451 |          451 |          532 |          532 |          451 |          451 |          532 |          532 |          451 |          451 |        12165 |        12165 |          686 |          686 |        23340 |        23340 |          690 |          690 |
il1.replacements                               318 |          318 |          216 |          216 |          319 |          319 |          220 |          220 |          300 |          300 |          194 |          194 |          302 |          302 |          195 |          195 |          302 |          302 |          195 |          195 |          302 |          302 |          195 |          195 |          302 |          302 |          195 |          195 |          302 |          302 |          195 |          195 |          302 |          302 |          195 |          195 |        11909 |        11909 |          430 |          430 |        23084 |        23084 |          434 |          434 |
il1.writebacks                                   0 |            0 |            0 |            0 |            0 |            0 |            0 |            0 |            0 |            0 |            0 |            0 |            0 |            0 |            0 |            0 |            0 |            0 |            0 |            0 |            0 |            0 |            0 |            0 |            0 |            0 |            0 |            0 |            0 |            0 |            0 |            0 |            0 |            0 |            0 |            0 |            0 |            0 |            0 |            0 |            0 |            0 |            0 |            0 |
il1.invalidations                                0 |            0 |            0 |            0 |            0 |            0 |            0 |            0 |            0 |            0 |            0 |            0 |            0 |            0 |            0 |            0 |            0 |            0 |            0 |            0 |            0 |            0 |            0 |            0 |            0 |            0 |            0 |            0 |            0 |            0 |            0 |            0 |            0 |            0 |            0 |            0 |            0 |            0 |            0 |            0 |            0 |            0 |            0 |            0 |
il1.miss_rate                               0.0008 |       0.0008 |       0.0007 |       0.0007 |       0.0004 |       0.0004 |       0.0004 |       0.0004 |       0.0002 |       0.0002 |       0.0002 |       0.0002 |       0.0001 |       0.0001 |       0.0001 |       0.0001 |       0.0000 |       0.0000 |       0.0000 |       0.0000 |       0.0000 |       0.0000 |       0.0000 |       0.0000 |       0.0000 |       0.0000 |       0.0000 |       0.0000 |       0.0000 |       0.0000 |       0.0000 |       0.0000 |       0.0000 |       0.0000 |       0.0000 |       0.0000 |       0.0000 |       0.0000 |       0.0000 |       0.0000 |       0.0000 |       0.0000 |       0.0000 |       0.0000 |
il1.repl_rate                               0.0005 |       0.0005 |       0.0003 |       0.0003 |       0.0002 |       0.0002 |       0.0002 |       0.0002 |       0.0001 |       0.0001 |       0.0001 |       0.0001 |       0.0001 |       0.0001 |       0.0000 |       0.0000 |       0.0000 |       0.0000 |       0.0000 |       0.0000 |       0.0000 |       0.0000 |       0.0000 |       0.0000 |       0.0000 |       0.0000 |       0.0000 |       0.0000 |       0.0000 |       0.0000 |       0.0000 |       0.0000 |       0.0000 |       0.0000 |       0.0000 |       0.0000 |       0.0000 |       0.0000 |       0.0000 |       0.0000 |       0.0000 |       0.0000 |       0.0000 |       0.0000 |
il1.wb_rate                                 0.0000 |       0.0000 |       0.0000 |       0.0000 |       0.0000 |       0.0000 |       0.0000 |       0.0000 |       0.0000 |       0.0000 |       0.0000 |       0.0000 |       0.0000 |       0.0000 |       0.0000 |       0.0000 |       0.0000 |       0.0000 |       0.0000 |       0.0000 |       0.0000 |       0.0000 |       0.0000 |       0.0000 |       0.0000 |       0.0000 |       0.0000 |       0.0000 |       0.0000 |       0.0000 |       0.0000 |       0.0000 |       0.0000 |       0.0000 |       0.0000 |       0.0000 |       0.0000 |       0.0000 |       0.0000 |       0.0000 |       0.0000 |       0.0000 |       0.0000 |       0.0000 |
il1.inv_rate                                0.0000 |       0.0000 |       0.0000 |       0.0000 |       0.0000 |       0.0000 |       0.0000 |       0.0000 |       0.0000 |       0.0000 |       0.0000 |       0.0000 |       0.0000 |       0.0000 |       0.0000 |       0.0000 |       0.0000 |       0.0000 |       0.0000 |       0.0000 |       0.0000 |       0.0000 |       0.0000 |       0.0000 |       0.0000 |       0.0000 |       0.0000 |       0.0000 |       0.0000 |       0.0000 |       0.0000 |       0.0000 |       0.0000 |       0.0000 |       0.0000 |       0.0000 |       0.0000 |       0.0000 |       0.0000 |       0.0000 |       0.0000 |       0.0000 |       0.0000 |       0.0000 |
dl1.accesses                                197347 |       197347 |       197347 |       197347 |       404168 |       404168 |       404168 |       404168 |       829964 |       829964 |       829964 |       829964 |      1718493 |      1718493 |      1718493 |      1718493 |      3570641 |      3570641 |      3570641 |      3570641 |      7456801 |      7456801 |      7456801 |      7456801 |     15367746 |     15367746 |     15367746 |     15367746 |     32044371 |     32044371 |     32044371 |     32044371 |     66009539 |     66009539 |     66009539 |     66009539 |    189593270 |    189593270 |    189593270 |    189593270 |    408496363 |    408496363 |    408496363 |    408496363 |
dl1.hits                                    194981 |       194981 |       194996 |       194996 |       398442 |       398442 |       398671 |       398671 |       817216 |       817216 |       817586 |       817586 |      1690088 |      1690088 |      1691130 |      1691130 |      3503782 |      3503782 |      3506402 |      3506402 |      7296552 |      7296552 |      7301757 |      7301757 |     15022359 |     15022359 |     15034247 |     15034247 |     31244749 |     31244749 |     31268767 |     31268767 |     64306444 |     64306444 |     64358270 |     64358270 |    177052434 |    177052434 |    185771358 |    185771358 |    394991400 |    394991400 |    400853701 |    400853701 |
dl1.misses                                    2366 |         2366 |         2351 |         2351 |         5726 |         5726 |         5497 |         5497 |        12748 |        12748 |        12378 |        12378 |        28405 |        28405 |        27363 |        27363 |        66859 |        66859 |        64239 |        64239 |       160249 |       160249 |       155044 |       155044 |       345387 |       345387 |       333499 |       333499 |       799622 |       799622 |       775604 |       775604 |      1703095 |      1703095 |      1651269 |      1651269 |     12540836 |     12540836 |      3821912 |      3821912 |     13504963 |     13504963 |      7642662 |      7642662 |
dl1.replacements                              2110 |         2110 |         2095 |         2095 |         5470 |         5470 |         5241 |         5241 |        12492 |        12492 |        12122 |        12122 |        28149 |        28149 |        27107 |        27107 |        66603 |        66603 |        63983 |        63983 |       159993 |       159993 |       154788 |       154788 |       345131 |       345131 |       333243 |       333243 |       799366 |       799366 |       775348 |       775348 |      1702839 |      1702839 |      1651013 |      1651013 |     12540580 |     12540580 |      3821656 |      3821656 |     13504707 |     13504707 |      7642406 |      7642406 |
dl1.writebacks                                2000 |         2000 |         1947 |         1947 |         4967 |         4967 |         4781 |         4781 |        11790 |        11790 |        11544 |        11544 |        26909 |        26909 |        26124 |        26124 |        62907 |        62907 |        60992 |        60992 |       145164 |       145164 |       141676 |       141676 |       321939 |       321939 |       314032 |       314032 |       723416 |       723416 |       708172 |       708172 |      1576622 |      1576622 |      1544043 |      1544043 |      6562104 |      6562104 |      3106768 |      3106768 |     10722162 |     10722162 |      6225183 |      6225183 |
dl1.invalidations                                0 |            0 |            0 |            0 |            0 |            0 |            0 |            0 |            0 |            0 |            0 |            0 |            0 |            0 |            0 |            0 |            0 |            0 |            0 |            0 |            0 |            0 |            0 |            0 |            0 |            0 |            0 |            0 |            0 |            0 |            0 |            0 |            0 |            0 |            0 |            0 |            0 |            0 |            0 |            0 |            0 |            0 |            0 |            0 |
dl1.miss_rate                               0.0120 |       0.0120 |       0.0119 |       0.0119 |       0.0142 |       0.0142 |       0.0136 |       0.0136 |       0.0154 |       0.0154 |       0.0149 |       0.0149 |       0.0165 |       0.0165 |       0.0159 |       0.0159 |       0.0187 |       0.0187 |       0.0180 |       0.0180 |       0.0215 |       0.0215 |       0.0208 |       0.0208 |       0.0225 |       0.0225 |       0.0217 |       0.0217 |       0.0250 |       0.0250 |       0.0242 |       0.0242 |       0.0258 |       0.0258 |       0.0250 |       0.0250 |       0.0661 |       0.0661 |       0.0202 |       0.0202 |       0.0331 |       0.0331 |       0.0187 |       0.0187 |
dl1.repl_rate                               0.0107 |       0.0107 |       0.0106 |       0.0106 |       0.0135 |       0.0135 |       0.0130 |       0.0130 |       0.0151 |       0.0151 |       0.0146 |       0.0146 |       0.0164 |       0.0164 |       0.0158 |       0.0158 |       0.0187 |       0.0187 |       0.0179 |       0.0179 |       0.0215 |       0.0215 |       0.0208 |       0.0208 |       0.0225 |       0.0225 |       0.0217 |       0.0217 |       0.0249 |       0.0249 |       0.0242 |       0.0242 |       0.0258 |       0.0258 |       0.0250 |       0.0250 |       0.0661 |       0.0661 |       0.0202 |       0.0202 |       0.0331 |       0.0331 |       0.0187 |       0.0187 |
dl1.wb_rate                                 0.0101 |       0.0101 |       0.0099 |       0.0099 |       0.0123 |       0.0123 |       0.0118 |       0.0118 |       0.0142 |       0.0142 |       0.0139 |       0.0139 |       0.0157 |       0.0157 |       0.0152 |       0.0152 |       0.0176 |       0.0176 |       0.0171 |       0.0171 |       0.0195 |       0.0195 |       0.0190 |       0.0190 |       0.0209 |       0.0209 |       0.0204 |       0.0204 |       0.0226 |       0.0226 |       0.0221 |       0.0221 |       0.0239 |       0.0239 |       0.0234 |       0.0234 |       0.0346 |       0.0346 |       0.0164 |       0.0164 |       0.0262 |       0.0262 |       0.0152 |       0.0152 |
dl1.inv_rate                                0.0000 |       0.0000 |       0.0000 |       0.0000 |       0.0000 |       0.0000 |       0.0000 |       0.0000 |       0.0000 |       0.0000 |       0.0000 |       0.0000 |       0.0000 |       0.0000 |       0.0000 |       0.0000 |       0.0000 |       0.0000 |       0.0000 |       0.0000 |       0.0000 |       0.0000 |       0.0000 |       0.0000 |       0.0000 |       0.0000 |       0.0000 |       0.0000 |       0.0000 |       0.0000 |       0.0000 |       0.0000 |       0.0000 |       0.0000 |       0.0000 |       0.0000 |       0.0000 |       0.0000 |       0.0000 |       0.0000 |       0.0000 |       0.0000 |       0.0000 |       0.0000 |
dl2.accesses                                  4913 |         4913 |         4770 |         4770 |        11240 |        11240 |        10754 |        10754 |        25068 |        25068 |        24372 |        24372 |        55846 |        55846 |        53938 |        53938 |       130298 |       130298 |       125682 |       125682 |       305945 |       305945 |       297171 |       297171 |       667858 |       667858 |       647982 |       647982 |      1523570 |      1523570 |      1484227 |      1484227 |      3280249 |      3280249 |      3195763 |      3195763 |     19115105 |     19115105 |      6929366 |      6929366 |     24250465 |     24250465 |     13868535 |     13868535 |
dl2.hits                                      3443 |         3443 |         3355 |         3355 |         9255 |         9255 |         8826 |         8826 |        22087 |        22087 |        21446 |        21446 |        50815 |        50815 |        48962 |        48962 |       121171 |       121171 |       116610 |       116610 |       288626 |       288626 |       279907 |       279907 |       634155 |       634155 |       614334 |       614334 |      1457098 |      1456342 |      1417810 |      1362027 |      3147497 |      2935585 |      2947230 |      2796489 |     17587762 |     17506081 |      5421294 |      5358620 |     21149090 |     21001355 |     10781917 |     10583330 |
dl2.misses                                    1470 |         1470 |         1415 |         1415 |         1985 |         1985 |         1928 |         1928 |         2981 |         2981 |         2926 |         2926 |         5031 |         5031 |         4976 |         4976 |         9127 |         9127 |         9072 |         9072 |        17319 |        17319 |        17264 |        17264 |        33703 |        33703 |        33648 |        33648 |        66472 |        67228 |        66417 |       122200 |       132752 |       344664 |       248533 |       399274 |      1527343 |      1609024 |      1508072 |      1570746 |      3101375 |      3249110 |      3086618 |      3285205 |
dl2.replacements                               334 |          334 |            0 |            0 |          338 |          338 |            0 |            0 |          324 |          324 |            0 |            0 |          324 |          324 |            0 |            0 |          324 |          324 |            0 |            0 |          324 |          324 |            0 |            0 |          324 |          324 |            0 |            0 |          325 |         1692 |            0 |        56664 |         1680 |       279128 |       117461 |       333738 |      1396271 |      1543488 |      1377000 |      1505210 |      2970303 |      3183574 |      2955546 |      3219669 |
dl2.writebacks                                 177 |          177 |            0 |            0 |          178 |          178 |            0 |            0 |          171 |          171 |            0 |            0 |          171 |          171 |            0 |            0 |          171 |          171 |            0 |            0 |          171 |          171 |            0 |            0 |          171 |          171 |            0 |            0 |          171 |         1367 |            0 |        56398 |         1357 |       275118 |       117195 |       326086 |       856283 |       983170 |       863334 |       981218 |      1908757 |      2112637 |      1911669 |      2165114 |
dl2.invalidations                                0 |            0 |            0 |            0 |            0 |            0 |            0 |            0 |            0 |            0 |            0 |            0 |            0 |            0 |            0 |            0 |            0 |            0 |            0 |            0 |            0 |            0 |            0 |            0 |            0 |            0 |            0 |            0 |            0 |            0 |            0 |            0 |            0 |            0 |            0 |            0 |            0 |            0 |            0 |            0 |            0 |            0 |            0 |            0 |
dl2.miss_rate                               0.2992 |       0.2992 |       0.2966 |       0.2966 |       0.1766 |       0.1766 |       0.1793 |       0.1793 |       0.1189 |       0.1189 |       0.1201 |       0.1201 |       0.0901 |       0.0901 |       0.0923 |       0.0923 |       0.0700 |       0.0700 |       0.0722 |       0.0722 |       0.0566 |       0.0566 |       0.0581 |       0.0581 |       0.0505 |       0.0505 |       0.0519 |       0.0519 |       0.0436 |       0.0441 |       0.0447 |       0.0823 |       0.0405 |       0.1051 |       0.0778 |       0.1249 |       0.0799 |       0.0842 |       0.2176 |       0.2267 |       0.1279 |       0.1340 |       0.2226 |       0.2369 |
dl2.repl_rate                               0.0680 |       0.0680 |       0.0000 |       0.0000 |       0.0301 |       0.0301 |       0.0000 |       0.0000 |       0.0129 |       0.0129 |       0.0000 |       0.0000 |       0.0058 |       0.0058 |       0.0000 |       0.0000 |       0.0025 |       0.0025 |       0.0000 |       0.0000 |       0.0011 |       0.0011 |       0.0000 |       0.0000 |       0.0005 |       0.0005 |       0.0000 |       0.0000 |       0.0002 |       0.0011 |       0.0000 |       0.0382 |       0.0005 |       0.0851 |       0.0368 |       0.1044 |       0.0730 |       0.0807 |       0.1987 |       0.2172 |       0.1225 |       0.1313 |       0.2131 |       0.2322 |
dl2.wb_rate                                 0.0360 |       0.0360 |       0.0000 |       0.0000 |       0.0158 |       0.0158 |       0.0000 |       0.0000 |       0.0068 |       0.0068 |       0.0000 |       0.0000 |       0.0031 |       0.0031 |       0.0000 |       0.0000 |       0.0013 |       0.0013 |       0.0000 |       0.0000 |       0.0006 |       0.0006 |       0.0000 |       0.0000 |       0.0003 |       0.0003 |       0.0000 |       0.0000 |       0.0001 |       0.0009 |       0.0000 |       0.0380 |       0.0004 |       0.0839 |       0.0367 |       0.1020 |       0.0448 |       0.0514 |       0.1246 |       0.1416 |       0.0787 |       0.0871 |       0.1378 |       0.1561 |
dl2.inv_rate                                0.0000 |       0.0000 |       0.0000 |       0.0000 |       0.0000 |       0.0000 |       0.0000 |       0.0000 |       0.0000 |       0.0000 |       0.0000 |       0.0000 |       0.0000 |       0.0000 |       0.0000 |       0.0000 |       0.0000 |       0.0000 |       0.0000 |       0.0000 |       0.0000 |       0.0000 |       0.0000 |       0.0000 |       0.0000 |       0.0000 |       0.0000 |       0.0000 |       0.0000 |       0.0000 |       0.0000 |       0.0000 |       0.0000 |       0.0000 |       0.0000 |       0.0000 |       0.0000 |       0.0000 |       0.0000 |       0.0000 |       0.0000 |       0.0000 |       0.0000 |       0.0000 |
itlb.accesses                               644625 |       644625 |       644625 |       644625 |      1354570 |      1354570 |      1354570 |      1354570 |      2817316 |      2817316 |      2817316 |      2817316 |      5888146 |      5888146 |      5888146 |      5888146 |     12371318 |     12371318 |     12371318 |     12371318 |     26236464 |     26236464 |     26236464 |     26236464 |     54160644 |     54160644 |     54160644 |     54160644 |    114615132 |    114615132 |    114615132 |    114615132 |    236737222 |    236737222 |    236737222 |    236737222 |    688886627 |    688886627 |    688886627 |    688886627 |   1513636679 |   1513636679 |   1513636679 |   1513636679 |
itlb.hits                                   644616 |       644616 |       644616 |       644616 |      1354561 |      1354561 |      1354561 |      1354561 |      2817307 |      2817307 |      2817307 |      2817307 |      5888137 |      5888137 |      5888137 |      5888137 |     12371309 |     12371309 |     12371309 |     12371309 |     26236455 |     26236455 |     26236455 |     26236455 |     54160635 |     54160635 |     54160635 |     54160635 |    114615123 |    114615123 |    114615123 |    114615123 |    236737213 |    236737213 |    236737213 |    236737213 |    688886618 |    688886618 |    688886618 |    688886618 |   1513636670 |   1513636670 |   1513636670 |   1513636670 |
itlb.misses                                      9 |            9 |            9 |            9 |            9 |            9 |            9 |            9 |            9 |            9 |            9 |            9 |            9 |            9 |            9 |            9 |            9 |            9 |            9 |            9 |            9 |            9 |            9 |            9 |            9 |            9 |            9 |            9 |            9 |            9 |            9 |            9 |            9 |            9 |            9 |            9 |            9 |            9 |            9 |            9 |            9 |            9 |            9 |            9 |
itlb.replacements                                0 |            0 |            0 |            0 |            0 |            0 |            0 |            0 |            0 |            0 |            0 |            0 |            0 |            0 |            0 |            0 |            0 |            0 |            0 |            0 |            0 |            0 |            0 |            0 |            0 |            0 |            0 |            0 |            0 |            0 |            0 |            0 |            0 |            0 |            0 |            0 |            0 |            0 |            0 |            0 |            0 |            0 |            0 |            0 |
itlb.writebacks                                  0 |            0 |            0 |            0 |            0 |            0 |            0 |            0 |            0 |            0 |            0 |            0 |            0 |            0 |            0 |            0 |            0 |            0 |            0 |            0 |            0 |            0 |            0 |            0 |            0 |            0 |            0 |            0 |            0 |            0 |            0 |            0 |            0 |            0 |            0 |            0 |            0 |            0 |            0 |            0 |            0 |            0 |            0 |            0 |
itlb.invalidations                               0 |            0 |            0 |            0 |            0 |            0 |            0 |            0 |            0 |            0 |            0 |            0 |            0 |            0 |            0 |            0 |            0 |            0 |            0 |            0 |            0 |            0 |            0 |            0 |            0 |            0 |            0 |            0 |            0 |            0 |            0 |            0 |            0 |            0 |            0 |            0 |            0 |            0 |            0 |            0 |            0 |            0 |            0 |            0 |
itlb.miss_rate                              0.0000 |       0.0000 |       0.0000 |       0.0000 |       0.0000 |       0.0000 |       0.0000 |       0.0000 |       0.0000 |       0.0000 |       0.0000 |       0.0000 |       0.0000 |       0.0000 |       0.0000 |       0.0000 |       0.0000 |       0.0000 |       0.0000 |       0.0000 |       0.0000 |       0.0000 |       0.0000 |       0.0000 |       0.0000 |       0.0000 |       0.0000 |       0.0000 |       0.0000 |       0.0000 |       0.0000 |       0.0000 |       0.0000 |       0.0000 |       0.0000 |       0.0000 |       0.0000 |       0.0000 |       0.0000 |       0.0000 |       0.0000 |       0.0000 |       0.0000 |       0.0000 |
itlb.repl_rate                              0.0000 |       0.0000 |       0.0000 |       0.0000 |       0.0000 |       0.0000 |       0.0000 |       0.0000 |       0.0000 |       0.0000 |       0.0000 |       0.0000 |       0.0000 |       0.0000 |       0.0000 |       0.0000 |       0.0000 |       0.0000 |       0.0000 |       0.0000 |       0.0000 |       0.0000 |       0.0000 |       0.0000 |       0.0000 |       0.0000 |       0.0000 |       0.0000 |       0.0000 |       0.0000 |       0.0000 |       0.0000 |       0.0000 |       0.0000 |       0.0000 |       0.0000 |       0.0000 |       0.0000 |       0.0000 |       0.0000 |       0.0000 |       0.0000 |       0.0000 |       0.0000 |
itlb.wb_rate                                0.0000 |       0.0000 |       0.0000 |       0.0000 |       0.0000 |       0.0000 |       0.0000 |       0.0000 |       0.0000 |       0.0000 |       0.0000 |       0.0000 |       0.0000 |       0.0000 |       0.0000 |       0.0000 |       0.0000 |       0.0000 |       0.0000 |       0.0000 |       0.0000 |       0.0000 |       0.0000 |       0.0000 |       0.0000 |       0.0000 |       0.0000 |       0.0000 |       0.0000 |       0.0000 |       0.0000 |       0.0000 |       0.0000 |       0.0000 |       0.0000 |       0.0000 |       0.0000 |       0.0000 |       0.0000 |       0.0000 |       0.0000 |       0.0000 |       0.0000 |       0.0000 |
itlb.inv_rate                               0.0000 |       0.0000 |       0.0000 |       0.0000 |       0.0000 |       0.0000 |       0.0000 |       0.0000 |       0.0000 |       0.0000 |       0.0000 |       0.0000 |       0.0000 |       0.0000 |       0.0000 |       0.0000 |       0.0000 |       0.0000 |       0.0000 |       0.0000 |       0.0000 |       0.0000 |       0.0000 |       0.0000 |       0.0000 |       0.0000 |       0.0000 |       0.0000 |       0.0000 |       0.0000 |       0.0000 |       0.0000 |       0.0000 |       0.0000 |       0.0000 |       0.0000 |       0.0000 |       0.0000 |       0.0000 |       0.0000 |       0.0000 |       0.0000 |       0.0000 |       0.0000 |
dtlb.accesses                               197347 |       197347 |       197347 |       197347 |       404168 |       404168 |       404168 |       404168 |       829964 |       829964 |       829964 |       829964 |      1718493 |      1718493 |      1718493 |      1718493 |      3570641 |      3570641 |      3570641 |      3570641 |      7456801 |      7456801 |      7456801 |      7456801 |     15367746 |     15367746 |     15367746 |     15367746 |     32044371 |     32044371 |     32044371 |     32044371 |     66009539 |     66009539 |     66009539 |     66009539 |    189593270 |    189593270 |    189593270 |    189593270 |    408496363 |    408496363 |    408496363 |    408496363 |
dtlb.hits                                   197336 |       197336 |       197336 |       197336 |       404153 |       404153 |       404153 |       404153 |       829941 |       829941 |       829941 |       829941 |      1718454 |      1718454 |      1718454 |      1718454 |      3570570 |      3570570 |      3570570 |      3570570 |      7456641 |      7456641 |      7456641 |      7456641 |     15366993 |     15366993 |     15366993 |     15366993 |     32042096 |     32042096 |     32042096 |     32042096 |     66003968 |     66003968 |     66003968 |     66003968 |    189576384 |    189576384 |    189576384 |    189576384 |    408399024 |    408399024 |    408399024 |    408399024 |
dtlb.misses                                     11 |           11 |           11 |           11 |           15 |           15 |           15 |           15 |           23 |           23 |           23 |           23 |           39 |           39 |           39 |           39 |           71 |           71 |           71 |           71 |          160 |          160 |          160 |          160 |          753 |          753 |          753 |          753 |         2275 |         2275 |         2275 |         2275 |         5571 |         5571 |         5571 |         5571 |        16886 |        16886 |        16886 |        16886 |        97339 |        97339 |        97339 |        97339 |
dtlb.replacements                                0 |            0 |            0 |            0 |            0 |            0 |            0 |            0 |            0 |            0 |            0 |            0 |            0 |            0 |            0 |            0 |            0 |            0 |            0 |            0 |           32 |           32 |           32 |           32 |          625 |          625 |          625 |          625 |         2147 |         2147 |         2147 |         2147 |         5443 |         5443 |         5443 |         5443 |        16758 |        16758 |        16758 |        16758 |        97211 |        97211 |        97211 |        97211 |
dtlb.writebacks                                  0 |            0 |            0 |            0 |            0 |            0 |            0 |            0 |            0 |            0 |            0 |            0 |            0 |            0 |            0 |            0 |            0 |            0 |            0 |            0 |           31 |           31 |           31 |           31 |          624 |          624 |          624 |          624 |         2146 |         2146 |         2146 |         2146 |         5442 |         5442 |         5442 |         5442 |        13145 |        13145 |        13145 |        13145 |        89918 |        89918 |        89918 |        89918 |
dtlb.invalidations                               0 |            0 |            0 |            0 |            0 |            0 |            0 |            0 |            0 |            0 |            0 |            0 |            0 |            0 |            0 |            0 |            0 |            0 |            0 |            0 |            0 |            0 |            0 |            0 |            0 |            0 |            0 |            0 |            0 |            0 |            0 |            0 |            0 |            0 |            0 |            0 |            0 |            0 |            0 |            0 |            0 |            0 |            0 |            0 |
dtlb.miss_rate                              0.0001 |       0.0001 |       0.0001 |       0.0001 |       0.0000 |       0.0000 |       0.0000 |       0.0000 |       0.0000 |       0.0000 |       0.0000 |       0.0000 |       0.0000 |       0.0000 |       0.0000 |       0.0000 |       0.0000 |       0.0000 |       0.0000 |       0.0000 |       0.0000 |       0.0000 |       0.0000 |       0.0000 |       0.0000 |       0.0000 |       0.0000 |       0.0000 |       0.0001 |       0.0001 |       0.0001 |       0.0001 |       0.0001 |       0.0001 |       0.0001 |       0.0001 |       0.0001 |       0.0001 |       0.0001 |       0.0001 |       0.0002 |       0.0002 |       0.0002 |       0.0002 |
dtlb.repl_rate                              0.0000 |       0.0000 |       0.0000 |       0.0000 |       0.0000 |       0.0000 |       0.0000 |       0.0000 |       0.0000 |       0.0000 |       0.0000 |       0.0000 |       0.0000 |       0.0000 |       0.0000 |       0.0000 |       0.0000 |       0.0000 |       0.0000 |       0.0000 |       0.0000 |       0.0000 |       0.0000 |       0.0000 |       0.0000 |       0.0000 |       0.0000 |       0.0000 |       0.0001 |       0.0001 |       0.0001 |       0.0001 |       0.0001 |       0.0001 |       0.0001 |       0.0001 |       0.0001 |       0.0001 |       0.0001 |       0.0001 |       0.0002 |       0.0002 |       0.0002 |       0.0002 |
dtlb.wb_rate                                0.0000 |       0.0000 |       0.0000 |       0.0000 |       0.0000 |       0.0000 |       0.0000 |       0.0000 |       0.0000 |       0.0000 |       0.0000 |       0.0000 |       0.0000 |       0.0000 |       0.0000 |       0.0000 |       0.0000 |       0.0000 |       0.0000 |       0.0000 |       0.0000 |       0.0000 |       0.0000 |       0.0000 |       0.0000 |       0.0000 |       0.0000 |       0.0000 |       0.0001 |       0.0001 |       0.0001 |       0.0001 |       0.0001 |       0.0001 |       0.0001 |       0.0001 |       0.0001 |       0.0001 |       0.0001 |       0.0001 |       0.0002 |       0.0002 |       0.0002 |       0.0002 |
dtlb.inv_rate                               0.0000 |       0.0000 |       0.0000 |       0.0000 |       0.0000 |       0.0000 |       0.0000 |       0.0000 |       0.0000 |       0.0000 |       0.0000 |       0.0000 |       0.0000 |       0.0000 |       0.0000 |       0.0000 |       0.0000 |       0.0000 |       0.0000 |       0.0000 |       0.0000 |       0.0000 |       0.0000 |       0.0000 |       0.0000 |       0.0000 |       0.0000 |       0.0000 |       0.0000 |       0.0000 |       0.0000 |       0.0000 |       0.0000 |       0.0000 |       0.0000 |       0.0000 |       0.0000 |       0.0000 |       0.0000 |       0.0000 |       0.0000 |       0.0000 |       0.0000 |       0.0000 |
ld_text_base                            0x00400000 |   0x00400000 |   0x00400000 |   0x00400000 |   0x00400000 |   0x00400000 |   0x00400000 |   0x00400000 |   0x00400000 |   0x00400000 |   0x00400000 |   0x00400000 |   0x00400000 |   0x00400000 |   0x00400000 |   0x00400000 |   0x00400000 |   0x00400000 |   0x00400000 |   0x00400000 |   0x00400000 |   0x00400000 |   0x00400000 |   0x00400000 |   0x00400000 |   0x00400000 |   0x00400000 |   0x00400000 |   0x00400000 |   0x00400000 |   0x00400000 |   0x00400000 |   0x00400000 |   0x00400000 |   0x00400000 |   0x00400000 |   0x00400000 |   0x00400000 |   0x00400000 |   0x00400000 |   0x00400000 |   0x00400000 |   0x00400000 |   0x00400000 |
ld_text_size                                 33248 |        33248 |        33248 |        33248 |        33280 |        33280 |        33280 |        33280 |        33296 |        33296 |        33296 |        33296 |        33328 |        33328 |        33328 |        33328 |        33328 |        33328 |        33328 |        33328 |        33328 |        33328 |        33328 |        33328 |        33328 |        33328 |        33328 |        33328 |        33328 |        33328 |        33328 |        33328 |        33328 |        33328 |        33328 |        33328 |        33328 |        33328 |        33328 |        33328 |        33328 |        33328 |        33328 |        33328 |
ld_data_base                            0x10000000 |   0x10000000 |   0x10000000 |   0x10000000 |   0x10000000 |   0x10000000 |   0x10000000 |   0x10000000 |   0x10000000 |   0x10000000 |   0x10000000 |   0x10000000 |   0x10000000 |   0x10000000 |   0x10000000 |   0x10000000 |   0x10000000 |   0x10000000 |   0x10000000 |   0x10000000 |   0x10000000 |   0x10000000 |   0x10000000 |   0x10000000 |   0x10000000 |   0x10000000 |   0x10000000 |   0x10000000 |   0x10000000 |   0x10000000 |   0x10000000 |   0x10000000 |   0x10000000 |   0x10000000 |   0x10000000 |   0x10000000 |   0x10000000 |   0x10000000 |   0x10000000 |   0x10000000 |   0x10000000 |   0x10000000 |   0x10000000 |   0x10000000 |
ld_data_size                                  4096 |         4096 |         4096 |         4096 |         4096 |         4096 |         4096 |         4096 |         4096 |         4096 |         4096 |         4096 |         4096 |         4096 |         4096 |         4096 |         4096 |         4096 |         4096 |         4096 |         4096 |         4096 |         4096 |         4096 |         4096 |         4096 |         4096 |         4096 |         4096 |         4096 |         4096 |         4096 |         4096 |         4096 |         4096 |         4096 |         4096 |         4096 |         4096 |         4096 |         4096 |         4096 |         4096 |         4096 |
ld_stack_base                           0x7fffc000 |   0x7fffc000 |   0x7fffc000 |   0x7fffc000 |   0x7fffc000 |   0x7fffc000 |   0x7fffc000 |   0x7fffc000 |   0x7fffc000 |   0x7fffc000 |   0x7fffc000 |   0x7fffc000 |   0x7fffc000 |   0x7fffc000 |   0x7fffc000 |   0x7fffc000 |   0x7fffc000 |   0x7fffc000 |   0x7fffc000 |   0x7fffc000 |   0x7fffc000 |   0x7fffc000 |   0x7fffc000 |   0x7fffc000 |   0x7fffc000 |   0x7fffc000 |   0x7fffc000 |   0x7fffc000 |   0x7fffc000 |   0x7fffc000 |   0x7fffc000 |   0x7fffc000 |   0x7fffc000 |   0x7fffc000 |   0x7fffc000 |   0x7fffc000 |   0x7fffc000 |   0x7fffc000 |   0x7fffc000 |   0x7fffc000 |   0x7fffc000 |   0x7fffc000 |   0x7fffc000 |   0x7fffc000 |
ld_stack_size                                16384 |        16384 |        16384 |        16384 |        16384 |        16384 |        16384 |        16384 |        16384 |        16384 |        16384 |        16384 |        16384 |        16384 |        16384 |        16384 |        16384 |        16384 |        16384 |        16384 |        16384 |        16384 |        16384 |        16384 |        16384 |        16384 |        16384 |        16384 |        16384 |        16384 |        16384 |        16384 |        16384 |        16384 |        16384 |        16384 |        16384 |        16384 |        16384 |        16384 |        16384 |        16384 |        16384 |        16384 |
ld_prog_entry                           0x00400140 |   0x00400140 |   0x00400140 |   0x00400140 |   0x00400140 |   0x00400140 |   0x00400140 |   0x00400140 |   0x00400140 |   0x00400140 |   0x00400140 |   0x00400140 |   0x00400140 |   0x00400140 |   0x00400140 |   0x00400140 |   0x00400140 |   0x00400140 |   0x00400140 |   0x00400140 |   0x00400140 |   0x00400140 |   0x00400140 |   0x00400140 |   0x00400140 |   0x00400140 |   0x00400140 |   0x00400140 |   0x00400140 |   0x00400140 |   0x00400140 |   0x00400140 |   0x00400140 |   0x00400140 |   0x00400140 |   0x00400140 |   0x00400140 |   0x00400140 |   0x00400140 |   0x00400140 |   0x00400140 |   0x00400140 |   0x00400140 |   0x00400140 |
ld_environ_base                         0x7fff8000 |   0x7fff8000 |   0x7fff8000 |   0x7fff8000 |   0x7fff8000 |   0x7fff8000 |   0x7fff8000 |   0x7fff8000 |   0x7fff8000 |   0x7fff8000 |   0x7fff8000 |   0x7fff8000 |   0x7fff8000 |   0x7fff8000 |   0x7fff8000 |   0x7fff8000 |   0x7fff8000 |   0x7fff8000 |   0x7fff8000 |   0x7fff8000 |   0x7fff8000 |   0x7fff8000 |   0x7fff8000 |   0x7fff8000 |   0x7fff8000 |   0x7fff8000 |   0x7fff8000 |   0x7fff8000 |   0x7fff8000 |   0x7fff8000 |   0x7fff8000 |   0x7fff8000 |   0x7fff8000 |   0x7fff8000 |   0x7fff8000 |   0x7fff8000 |   0x7fff8000 |   0x7fff8000 |   0x7fff8000 |   0x7fff8000 |   0x7fff8000 |   0x7fff8000 |   0x7fff8000 |   0x7fff8000 |
ld_target_big_endian                             0 |            0 |            0 |            0 |            0 |            0 |            0 |            0 |            0 |            0 |            0 |            0 |            0 |            0 |            0 |            0 |            0 |            0 |            0 |            0 |            0 |            0 |            0 |            0 |            0 |            0 |            0 |            0 |            0 |            0 |            0 |            0 |            0 |            0 |            0 |            0 |            0 |            0 |            0 |            0 |            0 |            0 |            0 |            0 |
mem.page_count                                  20 |           20 |           20 |           20 |           24 |           24 |           24 |           24 |           32 |           32 |           32 |           32 |           48 |           48 |           48 |           48 |           80 |           80 |           80 |           80 |          144 |          144 |          144 |          144 |          272 |          272 |          272 |          272 |          528 |          528 |          528 |          528 |         1040 |         1040 |         1040 |         1040 |         4148 |         4148 |         4148 |         4148 |         8273 |         8273 |         8273 |         8273 |
mem.page_mem                                   80k |          80k |          80k |          80k |          96k |          96k |          96k |          96k |         128k |         128k |         128k |         128k |         192k |         192k |         192k |         192k |         320k |         320k |         320k |         320k |         576k |         576k |         576k |         576k |        1088k |        1088k |        1088k |        1088k |        2112k |        2112k |        2112k |        2112k |        4160k |        4160k |        4160k |        4160k |       16592k |       16592k |       16592k |       16592k |       33092k |       33092k |       33092k |       33092k |
mem.ptab_misses                                 20 |           20 |           20 |           20 |           24 |           24 |           24 |           24 |           32 |           32 |           32 |           32 |           48 |           48 |           48 |           48 |           80 |           80 |           80 |           80 |          144 |          144 |          144 |          144 |          272 |          272 |          272 |          272 |          528 |          528 |          528 |          528 |         1040 |         1040 |         1040 |         1040 |        70877 |        70877 |        70877 |        70877 |        75012 |        75012 |        75012 |        75012 |
mem.ptab_accesses                          3177920 |      3177920 |      3177920 |      3177920 |      6431534 |      6431534 |      6431534 |      6431534 |     13134206 |     13134206 |     13134206 |     13134206 |     27194776 |     27194776 |     27194776 |     27194776 |     56831760 |     56831760 |     56831760 |     56831760 |    120064664 |    120064664 |    120064664 |    120064664 |    247583274 |    247583274 |    247583274 |    247583274 |    522754476 |    522754476 |    522754476 |    522754476 |   1079173172 |   1079173172 |   1079173172 |   1079173172 |   3134938254 |   3134938254 |   3134938254 |   3134938254 |   6871744648 |   6871744648 |   6871744648 |   6871744648 |
mem.ptab_miss_rate                          0.0000 |       0.0000 |       0.0000 |       0.0000 |       0.0000 |       0.0000 |       0.0000 |       0.0000 |       0.0000 |       0.0000 |       0.0000 |       0.0000 |       0.0000 |       0.0000 |       0.0000 |       0.0000 |       0.0000 |       0.0000 |       0.0000 |       0.0000 |       0.0000 |       0.0000 |       0.0000 |       0.0000 |       0.0000 |       0.0000 |       0.0000 |       0.0000 |       0.0000 |       0.0000 |       0.0000 |       0.0000 |       0.0000 |       0.0000 |       0.0000 |       0.0000 |       0.0000 |       0.0000 |       0.0000 |       0.0000 |       0.0000 |       0.0000 |       0.0000 |       0.0000 |
-------------------------------------------------------------------------------------------------
sim-bpred                                     4096 |         4096 |         4096 |         4096 |         4096 |         4096 |         4096 |         8192 |         8192 |         8192 |         8192 |         8192 |         8192 |         8192 |        16384 |        16384 |        16384 |        16384 |        16384 |        16384 |        16384 |        32768 |        32768 |        32768 |        32768 |        32768 |        32768 |        32768 |        65536 |        65536 |        65536 |        65536 |        65536 |        65536 |        65536 |       131072 |       131072 |       131072 |       131072 |       131072 |       131072 |       131072 |       262144 |       262144 |       262144 |       262144 |       262144 |       262144 |       262144 |       524288 |       524288 |       524288 |       524288 |       524288 |       524288 |       524288 |      1048576 |      1048576 |      1048576 |      1048576 |      1048576 |      1048576 |      1048576 |      2097152 |      2097152 |      2097152 |      2097152 |      2097152 |      2097152 |      2097152 |      4194304 |      4194304 |      4194304 |      4194304 |      4194304 |      4194304 |      4194304 |
-bpred bimod -bpred:bimod 512
-bpred bimod -bpred:bimod 1024
-bpred bimod -bpred:bimod 2048
-bpred 2lev -bpred:2lev 1 512 10 1
-bpred 2lev -bpred:2lev 1 1024 10 1
-bpred 2lev -bpred:2lev 1 2048 10 1
-bpred 2lev -bpred:2lev 1 4096 10 1
-------------------------------------------------------------------------------------------------
sim_num_insn                                644625 |       644625 |       644625 |       644625 |       644625 |       644625 |       644625 |      1354570 |      1354570 |      1354570 |      1354570 |      1354570 |      1354570 |      1354570 |      2817316 |      2817316 |      2817316 |      2817316 |      2817316 |      2817316 |      2817316 |      5888146 |      5888146 |      5888146 |      5888146 |      5888146 |      5888146 |      5888146 |     12371318 |     12371318 |     12371318 |     12371318 |     12371318 |     12371318 |     12371318 |     26236464 |     26236464 |     26236464 |     26236464 |     26236464 |     26236464 |     26236464 |     54160644 |     54160644 |     54160644 |     54160644 |     54160644 |     54160644 |     54160644 |    114615132 |    114615132 |    114615132 |    114615132 |    114615132 |    114615132 |    114615132 |    236737222 |    236737222 |    236737222 |    236737222 |    236737222 |    236737222 |    236737222 |    688886627 |    688886627 |    688886627 |    688886627 |    688886627 |    688886627 |    688886627 |   1513636679 |   1513636679 |   1513636679 |   1513636679 |   1513636679 |   1513636679 |   1513636679 |
sim_num_refs                                197277 |       197277 |       197277 |       197277 |       197277 |       197277 |       197277 |       404098 |       404098 |       404098 |       404098 |       404098 |       404098 |       404098 |       829894 |       829894 |       829894 |       829894 |       829894 |       829894 |       829894 |      1718423 |      1718423 |      1718423 |      1718423 |      1718423 |      1718423 |      1718423 |      3570571 |      3570571 |      3570571 |      3570571 |      3570571 |      3570571 |      3570571 |      7456731 |      7456731 |      7456731 |      7456731 |      7456731 |      7456731 |      7456731 |     15367676 |     15367676 |     15367676 |     15367676 |     15367676 |     15367676 |     15367676 |     32044301 |     32044301 |     32044301 |     32044301 |     32044301 |     32044301 |     32044301 |     66009469 |     66009469 |     66009469 |     66009469 |     66009469 |     66009469 |     66009469 |    189593199 |    189593199 |    189593199 |    189593199 |    189593199 |    189593199 |    189593199 |    408496292 |    408496292 |    408496292 |    408496292 |    408496292 |    408496292 |    408496292 |
sim_elapsed_time                                 1 |            1 |            1 |            1 |            1 |            1 |            1 |            1 |            1 |            1 |            1 |            1 |            1 |            1 |            1 |            1 |            1 |            1 |            1 |            1 |            1 |            1 |            1 |            1 |            1 |            1 |            1 |            1 |            2 |            1 |            2 |            2 |            1 |            2 |            1 |            3 |            3 |            3 |            3 |            4 |            3 |            3 |            7 |            7 |            6 |            7 |            7 |            6 |            7 |           14 |           13 |           13 |           14 |           15 |           14 |           14 |           29 |           29 |           28 |           29 |           30 |           29 |           29 |           86 |           86 |           86 |           88 |           88 |           88 |           88 |          189 |          190 |          190 |          195 |          193 |          195 |          195 |
sim_inst_rate                          644625.0000 |  644625.0000 |  644625.0000 |  644625.0000 |  644625.0000 |  644625.0000 |  644625.0000 | 1354570.0000 | 1354570.0000 | 1354570.0000 | 1354570.0000 | 1354570.0000 | 1354570.0000 | 1354570.0000 | 2817316.0000 | 2817316.0000 | 2817316.0000 | 2817316.0000 | 2817316.0000 | 2817316.0000 | 2817316.0000 | 5888146.0000 | 5888146.0000 | 5888146.0000 | 5888146.0000 | 5888146.0000 | 5888146.0000 | 5888146.0000 | 6185659.0000 |12371318.0000 | 6185659.0000 | 6185659.0000 |12371318.0000 | 6185659.0000 |12371318.0000 | 8745488.0000 | 8745488.0000 | 8745488.0000 | 8745488.0000 | 6559116.0000 | 8745488.0000 | 8745488.0000 | 7737234.8571 | 7737234.8571 | 9026774.0000 | 7737234.8571 | 7737234.8571 | 9026774.0000 | 7737234.8571 | 8186795.1429 | 8816548.6154 | 8816548.6154 | 8186795.1429 | 7641008.8000 | 8186795.1429 | 8186795.1429 | 8163352.4828 | 8163352.4828 | 8454900.7857 | 8163352.4828 | 7891240.7333 | 8163352.4828 | 8163352.4828 | 8010309.6163 | 8010309.6163 | 8010309.6163 | 7828257.1250 | 7828257.1250 | 7828257.1250 | 7828257.1250 | 8008659.6772 | 7966508.8368 | 7966508.8368 | 7762239.3795 | 7842677.0933 | 7762239.3795 | 7762239.3795 |
sim_num_branches                            112522 |       112522 |       112522 |       112522 |       112522 |       112522 |       112522 |       236705 |       236705 |       236705 |       236705 |       236705 |       236705 |       236705 |       493772 |       493772 |       493772 |       493772 |       493772 |       493772 |       493772 |      1033159 |      1033159 |      1033159 |      1033159 |      1033159 |      1033159 |      1033159 |      2173135 |      2173135 |      2173135 |      2173135 |      2173135 |      2173135 |      2173135 |      4613469 |      4613469 |      4613469 |      4613469 |      4613469 |      4613469 |      4613469 |      9548939 |      9548939 |      9548939 |      9548939 |      9548939 |      9548939 |      9548939 |     20180967 |     20180967 |     20180967 |     20180967 |     20180967 |     20180967 |     20180967 |     41756950 |     41756950 |     41756950 |     41756950 |     41756950 |     41756950 |     41756950 |    119727684 |    119727684 |    119727684 |    119727684 |    119727684 |    119727684 |    119727684 |    268658386 |    268658386 |    268658386 |    268658386 |    268658386 |    268658386 |    268658386 |
sim_IPB                                     5.7289 |       5.7289 |       5.7289 |       5.7289 |       5.7289 |       5.7289 |       5.7289 |       5.7226 |       5.7226 |       5.7226 |       5.7226 |       5.7226 |       5.7226 |       5.7226 |       5.7057 |       5.7057 |       5.7057 |       5.7057 |       5.7057 |       5.7057 |       5.7057 |       5.6992 |       5.6992 |       5.6992 |       5.6992 |       5.6992 |       5.6992 |       5.6992 |       5.6928 |       5.6928 |       5.6928 |       5.6928 |       5.6928 |       5.6928 |       5.6928 |       5.6869 |       5.6869 |       5.6869 |       5.6869 |       5.6869 |       5.6869 |       5.6869 |       5.6719 |       5.6719 |       5.6719 |       5.6719 |       5.6719 |       5.6719 |       5.6719 |       5.6794 |       5.6794 |       5.6794 |       5.6794 |       5.6794 |       5.6794 |       5.6794 |       5.6694 |       5.6694 |       5.6694 |       5.6694 |       5.6694 |       5.6694 |       5.6694 |       5.7538 |       5.7538 |       5.7538 |       5.7538 |       5.7538 |       5.7538 |       5.7538 |       5.6341 |       5.6341 |       5.6341 |       5.6341 |       5.6341 |       5.6341 |       5.6341 |
bpred_bimod.lookups                         112522 |       112522 |       112522 |xxxxxxxxxxxxx |xxxxxxxxxxxxx |xxxxxxxxxxxxx |xxxxxxxxxxxxx |       236705 |       236705 |       236705 |xxxxxxxxxxxxx |xxxxxxxxxxxxx |xxxxxxxxxxxxx |xxxxxxxxxxxxx |       493772 |       493772 |       493772 |xxxxxxxxxxxxx |xxxxxxxxxxxxx |xxxxxxxxxxxxx |xxxxxxxxxxxxx |      1033159 |      1033159 |      1033159 |xxxxxxxxxxxxx |xxxxxxxxxxxxx |xxxxxxxxxxxxx |xxxxxxxxxxxxx |      2173135 |      2173135 |      2173135 |xxxxxxxxxxxxx |xxxxxxxxxxxxx |xxxxxxxxxxxxx |xxxxxxxxxxxxx |      4613469 |      4613469 |      4613469 |xxxxxxxxxxxxx |xxxxxxxxxxxxx |xxxxxxxxxxxxx |xxxxxxxxxxxxx |      9548939 |      9548939 |      9548939 |xxxxxxxxxxxxx |xxxxxxxxxxxxx |xxxxxxxxxxxxx |xxxxxxxxxxxxx |     20180967 |     20180967 |     20180967 |xxxxxxxxxxxxx |xxxxxxxxxxxxx |xxxxxxxxxxxxx |xxxxxxxxxxxxx |     41756950 |     41756950 |     41756950 |xxxxxxxxxxxxx |xxxxxxxxxxxxx |xxxxxxxxxxxxx |xxxxxxxxxxxxx |    119727684 |    119727684 |    119727684 |xxxxxxxxxxxxx |xxxxxxxxxxxxx |xxxxxxxxxxxxx |xxxxxxxxxxxxx |    268658386 |    268658386 |    268658386 |
bpred_bimod.updates                         112522 |       112522 |       112522 |xxxxxxxxxxxxx |xxxxxxxxxxxxx |xxxxxxxxxxxxx |xxxxxxxxxxxxx |       236705 |       236705 |       236705 |xxxxxxxxxxxxx |xxxxxxxxxxxxx |xxxxxxxxxxxxx |xxxxxxxxxxxxx |       493772 |       493772 |       493772 |xxxxxxxxxxxxx |xxxxxxxxxxxxx |xxxxxxxxxxxxx |xxxxxxxxxxxxx |      1033159 |      1033159 |      1033159 |xxxxxxxxxxxxx |xxxxxxxxxxxxx |xxxxxxxxxxxxx |xxxxxxxxxxxxx |      2173135 |      2173135 |      2173135 |xxxxxxxxxxxxx |xxxxxxxxxxxxx |xxxxxxxxxxxxx |xxxxxxxxxxxxx |      4613469 |      4613469 |      4613469 |xxxxxxxxxxxxx |xxxxxxxxxxxxx |xxxxxxxxxxxxx |xxxxxxxxxxxxx |      9548939 |      9548939 |      9548939 |xxxxxxxxxxxxx |xxxxxxxxxxxxx |xxxxxxxxxxxxx |xxxxxxxxxxxxx |     20180967 |     20180967 |     20180967 |xxxxxxxxxxxxx |xxxxxxxxxxxxx |xxxxxxxxxxxxx |xxxxxxxxxxxxx |     41756950 |     41756950 |     41756950 |xxxxxxxxxxxxx |xxxxxxxxxxxxx |xxxxxxxxxxxxx |xxxxxxxxxxxxx |    119727684 |    119727684 |    119727684 |xxxxxxxxxxxxx |xxxxxxxxxxxxx |xxxxxxxxxxxxx |xxxxxxxxxxxxx |    268658386 |    268658386 |    268658386 |
bpred_bimod.addr_hits                        87858 |        87857 |        87861 |xxxxxxxxxxxxx |xxxxxxxxxxxxx |xxxxxxxxxxxxx |xxxxxxxxxxxxx |       184767 |       184766 |       184774 |xxxxxxxxxxxxx |xxxxxxxxxxxxx |xxxxxxxxxxxxx |xxxxxxxxxxxxx |       384907 |       384906 |       384913 |xxxxxxxxxxxxx |xxxxxxxxxxxxx |xxxxxxxxxxxxx |xxxxxxxxxxxxx |       797240 |       797240 |       797247 |xxxxxxxxxxxxx |xxxxxxxxxxxxx |xxxxxxxxxxxxx |xxxxxxxxxxxxx |      1673444 |      1673450 |      1673456 |xxxxxxxxxxxxx |xxxxxxxxxxxxx |xxxxxxxxxxxxx |xxxxxxxxxxxxx |      3572184 |      3572187 |      3572195 |xxxxxxxxxxxxx |xxxxxxxxxxxxx |xxxxxxxxxxxxx |xxxxxxxxxxxxx |      7329555 |      7329556 |      7329563 |xxxxxxxxxxxxx |xxxxxxxxxxxxx |xxxxxxxxxxxxx |xxxxxxxxxxxxx |     15567229 |     15567232 |     15567238 |xxxxxxxxxxxxx |xxxxxxxxxxxxx |xxxxxxxxxxxxx |xxxxxxxxxxxxx |     32021857 |     32021855 |     32021861 |xxxxxxxxxxxxx |xxxxxxxxxxxxx |xxxxxxxxxxxxx |xxxxxxxxxxxxx |     99641283 |     99641286 |     99641287 |xxxxxxxxxxxxx |xxxxxxxxxxxxx |xxxxxxxxxxxxx |xxxxxxxxxxxxx |    228319557 |    228319559 |    228319566 |
bpred_bimod.dir_hits                         87983 |        87979 |        87983 |xxxxxxxxxxxxx |xxxxxxxxxxxxx |xxxxxxxxxxxxx |xxxxxxxxxxxxx |       184893 |       184889 |       184896 |xxxxxxxxxxxxx |xxxxxxxxxxxxx |xxxxxxxxxxxxx |xxxxxxxxxxxxx |       385037 |       385034 |       385040 |xxxxxxxxxxxxx |xxxxxxxxxxxxx |xxxxxxxxxxxxx |xxxxxxxxxxxxx |       797371 |       797368 |       797374 |xxxxxxxxxxxxx |xxxxxxxxxxxxx |xxxxxxxxxxxxx |xxxxxxxxxxxxx |      1673575 |      1673579 |      1673584 |xxxxxxxxxxxxx |xxxxxxxxxxxxx |xxxxxxxxxxxxx |xxxxxxxxxxxxx |      3572309 |      3572309 |      3572317 |xxxxxxxxxxxxx |xxxxxxxxxxxxx |xxxxxxxxxxxxx |xxxxxxxxxxxxx |      7329686 |      7329684 |      7329689 |xxxxxxxxxxxxx |xxxxxxxxxxxxx |xxxxxxxxxxxxx |xxxxxxxxxxxxx |     15567360 |     15567360 |     15567364 |xxxxxxxxxxxxx |xxxxxxxxxxxxx |xxxxxxxxxxxxx |xxxxxxxxxxxxx |     32021987 |     32021982 |     32021987 |xxxxxxxxxxxxx |xxxxxxxxxxxxx |xxxxxxxxxxxxx |xxxxxxxxxxxxx |     99641464 |     99641466 |     99641464 |xxxxxxxxxxxxx |xxxxxxxxxxxxx |xxxxxxxxxxxxx |xxxxxxxxxxxxx |    228319742 |    228319742 |    228319749 |
bpred_bimod.misses                           24539 |        24543 |        24539 |xxxxxxxxxxxxx |xxxxxxxxxxxxx |xxxxxxxxxxxxx |xxxxxxxxxxxxx |        51812 |        51816 |        51809 |xxxxxxxxxxxxx |xxxxxxxxxxxxx |xxxxxxxxxxxxx |xxxxxxxxxxxxx |       108735 |       108738 |       108732 |xxxxxxxxxxxxx |xxxxxxxxxxxxx |xxxxxxxxxxxxx |xxxxxxxxxxxxx |       235788 |       235791 |       235785 |xxxxxxxxxxxxx |xxxxxxxxxxxxx |xxxxxxxxxxxxx |xxxxxxxxxxxxx |       499560 |       499556 |       499551 |xxxxxxxxxxxxx |xxxxxxxxxxxxx |xxxxxxxxxxxxx |xxxxxxxxxxxxx |      1041160 |      1041160 |      1041152 |xxxxxxxxxxxxx |xxxxxxxxxxxxx |xxxxxxxxxxxxx |xxxxxxxxxxxxx |      2219253 |      2219255 |      2219250 |xxxxxxxxxxxxx |xxxxxxxxxxxxx |xxxxxxxxxxxxx |xxxxxxxxxxxxx |      4613607 |      4613607 |      4613603 |xxxxxxxxxxxxx |xxxxxxxxxxxxx |xxxxxxxxxxxxx |xxxxxxxxxxxxx |      9734963 |      9734968 |      9734963 |xxxxxxxxxxxxx |xxxxxxxxxxxxx |xxxxxxxxxxxxx |xxxxxxxxxxxxx |     20086220 |     20086218 |     20086220 |xxxxxxxxxxxxx |xxxxxxxxxxxxx |xxxxxxxxxxxxx |xxxxxxxxxxxxx |     40338644 |     40338644 |     40338637 |
bpred_bimod.jr_hits                           8560 |         8560 |         8560 |xxxxxxxxxxxxx |xxxxxxxxxxxxx |xxxxxxxxxxxxx |xxxxxxxxxxxxx |        16752 |        16752 |        16752 |xxxxxxxxxxxxx |xxxxxxxxxxxxx |xxxxxxxxxxxxx |xxxxxxxxxxxxx |        33136 |        33136 |        33136 |xxxxxxxxxxxxx |xxxxxxxxxxxxx |xxxxxxxxxxxxx |xxxxxxxxxxxxx |        65904 |        65904 |        65904 |xxxxxxxxxxxxx |xxxxxxxxxxxxx |xxxxxxxxxxxxx |xxxxxxxxxxxxx |       131440 |       131440 |       131440 |xxxxxxxxxxxxx |xxxxxxxxxxxxx |xxxxxxxxxxxxx |xxxxxxxxxxxxx |       262512 |       262512 |       262512 |xxxxxxxxxxxxx |xxxxxxxxxxxxx |xxxxxxxxxxxxx |xxxxxxxxxxxxx |       524656 |       524656 |       524656 |xxxxxxxxxxxxx |xxxxxxxxxxxxx |xxxxxxxxxxxxx |xxxxxxxxxxxxx |      1048944 |      1048944 |      1048944 |xxxxxxxxxxxxx |xxxxxxxxxxxxx |xxxxxxxxxxxxx |xxxxxxxxxxxxx |      2097520 |      2097520 |      2097520 |xxxxxxxxxxxxx |xxxxxxxxxxxxx |xxxxxxxxxxxxx |xxxxxxxxxxxxx |      4198350 |      4198350 |      4198350 |xxxxxxxxxxxxx |xxxxxxxxxxxxx |xxxxxxxxxxxxx |xxxxxxxxxxxxx |      8396276 |      8396276 |      8396276 |
bpred_bimod.jr_seen                           8560 |         8560 |         8560 |xxxxxxxxxxxxx |xxxxxxxxxxxxx |xxxxxxxxxxxxx |xxxxxxxxxxxxx |        16752 |        16752 |        16752 |xxxxxxxxxxxxx |xxxxxxxxxxxxx |xxxxxxxxxxxxx |xxxxxxxxxxxxx |        33136 |        33136 |        33136 |xxxxxxxxxxxxx |xxxxxxxxxxxxx |xxxxxxxxxxxxx |xxxxxxxxxxxxx |        65904 |        65904 |        65904 |xxxxxxxxxxxxx |xxxxxxxxxxxxx |xxxxxxxxxxxxx |xxxxxxxxxxxxx |       131440 |       131440 |       131440 |xxxxxxxxxxxxx |xxxxxxxxxxxxx |xxxxxxxxxxxxx |xxxxxxxxxxxxx |       262512 |       262512 |       262512 |xxxxxxxxxxxxx |xxxxxxxxxxxxx |xxxxxxxxxxxxx |xxxxxxxxxxxxx |       524656 |       524656 |       524656 |xxxxxxxxxxxxx |xxxxxxxxxxxxx |xxxxxxxxxxxxx |xxxxxxxxxxxxx |      1048944 |      1048944 |      1048944 |xxxxxxxxxxxxx |xxxxxxxxxxxxx |xxxxxxxxxxxxx |xxxxxxxxxxxxx |      2097520 |      2097520 |      2097520 |xxxxxxxxxxxxx |xxxxxxxxxxxxx |xxxxxxxxxxxxx |xxxxxxxxxxxxx |      4198351 |      4198351 |      4198351 |xxxxxxxxxxxxx |xxxxxxxxxxxxx |xxxxxxxxxxxxx |xxxxxxxxxxxxx |      8396277 |      8396277 |      8396277 |
bpred_bimod.jr_non_ras_hits.PP                   0 |            0 |            0 |xxxxxxxxxxxxx |xxxxxxxxxxxxx |xxxxxxxxxxxxx |xxxxxxxxxxxxx |            0 |            0 |            0 |xxxxxxxxxxxxx |xxxxxxxxxxxxx |xxxxxxxxxxxxx |xxxxxxxxxxxxx |            0 |            0 |            0 |xxxxxxxxxxxxx |xxxxxxxxxxxxx |xxxxxxxxxxxxx |xxxxxxxxxxxxx |            0 |            0 |            0 |xxxxxxxxxxxxx |xxxxxxxxxxxxx |xxxxxxxxxxxxx |xxxxxxxxxxxxx |            0 |            0 |            0 |xxxxxxxxxxxxx |xxxxxxxxxxxxx |xxxxxxxxxxxxx |xxxxxxxxxxxxx |            0 |            0 |            0 |xxxxxxxxxxxxx |xxxxxxxxxxxxx |xxxxxxxxxxxxx |xxxxxxxxxxxxx |            0 |            0 |            0 |xxxxxxxxxxxxx |xxxxxxxxxxxxx |xxxxxxxxxxxxx |xxxxxxxxxxxxx |            0 |            0 |            0 |xxxxxxxxxxxxx |xxxxxxxxxxxxx |xxxxxxxxxxxxx |xxxxxxxxxxxxx |            0 |            0 |            0 |xxxxxxxxxxxxx |xxxxxxxxxxxxx |xxxxxxxxxxxxx |xxxxxxxxxxxxx |            1 |            1 |            1 |xxxxxxxxxxxxx |xxxxxxxxxxxxx |xxxxxxxxxxxxx |xxxxxxxxxxxxx |            2 |            2 |            2 |
bpred_bimod.jr_non_ras_seen.PP                   0 |            0 |            0 |xxxxxxxxxxxxx |xxxxxxxxxxxxx |xxxxxxxxxxxxx |xxxxxxxxxxxxx |            0 |            0 |            0 |xxxxxxxxxxxxx |xxxxxxxxxxxxx |xxxxxxxxxxxxx |xxxxxxxxxxxxx |            0 |            0 |            0 |xxxxxxxxxxxxx |xxxxxxxxxxxxx |xxxxxxxxxxxxx |xxxxxxxxxxxxx |            0 |            0 |            0 |xxxxxxxxxxxxx |xxxxxxxxxxxxx |xxxxxxxxxxxxx |xxxxxxxxxxxxx |            0 |            0 |            0 |xxxxxxxxxxxxx |xxxxxxxxxxxxx |xxxxxxxxxxxxx |xxxxxxxxxxxxx |            0 |            0 |            0 |xxxxxxxxxxxxx |xxxxxxxxxxxxx |xxxxxxxxxxxxx |xxxxxxxxxxxxx |            0 |            0 |            0 |xxxxxxxxxxxxx |xxxxxxxxxxxxx |xxxxxxxxxxxxx |xxxxxxxxxxxxx |            0 |            0 |            0 |xxxxxxxxxxxxx |xxxxxxxxxxxxx |xxxxxxxxxxxxx |xxxxxxxxxxxxx |            0 |            0 |            0 |xxxxxxxxxxxxx |xxxxxxxxxxxxx |xxxxxxxxxxxxx |xxxxxxxxxxxxx |            2 |            2 |            2 |xxxxxxxxxxxxx |xxxxxxxxxxxxx |xxxxxxxxxxxxx |xxxxxxxxxxxxx |            3 |            3 |            3 |
bpred_bimod.bpred_addr_rate                 0.7808 |       0.7808 |       0.7808 |xxxxxxxxxxxxx |xxxxxxxxxxxxx |xxxxxxxxxxxxx |xxxxxxxxxxxxx |       0.7806 |       0.7806 |       0.7806 |xxxxxxxxxxxxx |xxxxxxxxxxxxx |xxxxxxxxxxxxx |xxxxxxxxxxxxx |       0.7795 |       0.7795 |       0.7795 |xxxxxxxxxxxxx |xxxxxxxxxxxxx |xxxxxxxxxxxxx |xxxxxxxxxxxxx |       0.7717 |       0.7717 |       0.7717 |xxxxxxxxxxxxx |xxxxxxxxxxxxx |xxxxxxxxxxxxx |xxxxxxxxxxxxx |       0.7701 |       0.7701 |       0.7701 |xxxxxxxxxxxxx |xxxxxxxxxxxxx |xxxxxxxxxxxxx |xxxxxxxxxxxxx |       0.7743 |       0.7743 |       0.7743 |xxxxxxxxxxxxx |xxxxxxxxxxxxx |xxxxxxxxxxxxx |xxxxxxxxxxxxx |       0.7676 |       0.7676 |       0.7676 |xxxxxxxxxxxxx |xxxxxxxxxxxxx |xxxxxxxxxxxxx |xxxxxxxxxxxxx |       0.7714 |       0.7714 |       0.7714 |xxxxxxxxxxxxx |xxxxxxxxxxxxx |xxxxxxxxxxxxx |xxxxxxxxxxxxx |       0.7669 |       0.7669 |       0.7669 |xxxxxxxxxxxxx |xxxxxxxxxxxxx |xxxxxxxxxxxxx |xxxxxxxxxxxxx |       0.8322 |       0.8322 |       0.8322 |xxxxxxxxxxxxx |xxxxxxxxxxxxx |xxxxxxxxxxxxx |xxxxxxxxxxxxx |       0.8499 |       0.8499 |       0.8499 |
bpred_bimod.bpred_dir_rate                  0.7819 |       0.7819 |       0.7819 |xxxxxxxxxxxxx |xxxxxxxxxxxxx |xxxxxxxxxxxxx |xxxxxxxxxxxxx |       0.7811 |       0.7811 |       0.7811 |xxxxxxxxxxxxx |xxxxxxxxxxxxx |xxxxxxxxxxxxx |xxxxxxxxxxxxx |       0.7798 |       0.7798 |       0.7798 |xxxxxxxxxxxxx |xxxxxxxxxxxxx |xxxxxxxxxxxxx |xxxxxxxxxxxxx |       0.7718 |       0.7718 |       0.7718 |xxxxxxxxxxxxx |xxxxxxxxxxxxx |xxxxxxxxxxxxx |xxxxxxxxxxxxx |       0.7701 |       0.7701 |       0.7701 |xxxxxxxxxxxxx |xxxxxxxxxxxxx |xxxxxxxxxxxxx |xxxxxxxxxxxxx |       0.7743 |       0.7743 |       0.7743 |xxxxxxxxxxxxx |xxxxxxxxxxxxx |xxxxxxxxxxxxx |xxxxxxxxxxxxx |       0.7676 |       0.7676 |       0.7676 |xxxxxxxxxxxxx |xxxxxxxxxxxxx |xxxxxxxxxxxxx |xxxxxxxxxxxxx |       0.7714 |       0.7714 |       0.7714 |xxxxxxxxxxxxx |xxxxxxxxxxxxx |xxxxxxxxxxxxx |xxxxxxxxxxxxx |       0.7669 |       0.7669 |       0.7669 |xxxxxxxxxxxxx |xxxxxxxxxxxxx |xxxxxxxxxxxxx |xxxxxxxxxxxxx |       0.8322 |       0.8322 |       0.8322 |xxxxxxxxxxxxx |xxxxxxxxxxxxx |xxxxxxxxxxxxx |xxxxxxxxxxxxx |       0.8499 |       0.8499 |       0.8499 |
bpred_bimod.bpred_jr_rate                   1.0000 |       1.0000 |       1.0000 |xxxxxxxxxxxxx |xxxxxxxxxxxxx |xxxxxxxxxxxxx |xxxxxxxxxxxxx |       1.0000 |       1.0000 |       1.0000 |xxxxxxxxxxxxx |xxxxxxxxxxxxx |xxxxxxxxxxxxx |xxxxxxxxxxxxx |       1.0000 |       1.0000 |       1.0000 |xxxxxxxxxxxxx |xxxxxxxxxxxxx |xxxxxxxxxxxxx |xxxxxxxxxxxxx |       1.0000 |       1.0000 |       1.0000 |xxxxxxxxxxxxx |xxxxxxxxxxxxx |xxxxxxxxxxxxx |xxxxxxxxxxxxx |       1.0000 |       1.0000 |       1.0000 |xxxxxxxxxxxxx |xxxxxxxxxxxxx |xxxxxxxxxxxxx |xxxxxxxxxxxxx |       1.0000 |       1.0000 |       1.0000 |xxxxxxxxxxxxx |xxxxxxxxxxxxx |xxxxxxxxxxxxx |xxxxxxxxxxxxx |       1.0000 |       1.0000 |       1.0000 |xxxxxxxxxxxxx |xxxxxxxxxxxxx |xxxxxxxxxxxxx |xxxxxxxxxxxxx |       1.0000 |       1.0000 |       1.0000 |xxxxxxxxxxxxx |xxxxxxxxxxxxx |xxxxxxxxxxxxx |xxxxxxxxxxxxx |       1.0000 |       1.0000 |       1.0000 |xxxxxxxxxxxxx |xxxxxxxxxxxxx |xxxxxxxxxxxxx |xxxxxxxxxxxxx |       1.0000 |       1.0000 |       1.0000 |xxxxxxxxxxxxx |xxxxxxxxxxxxx |xxxxxxxxxxxxx |xxxxxxxxxxxxx |       1.0000 |       1.0000 |       1.0000 |
bpred_bimod.bpred_jr_non_ras_rate.PP       <error: |      <error: |      <error: |xxxxxxxxxxxxx |xxxxxxxxxxxxx |xxxxxxxxxxxxx |xxxxxxxxxxxxx |      <error: |      <error: |      <error: |xxxxxxxxxxxxx |xxxxxxxxxxxxx |xxxxxxxxxxxxx |xxxxxxxxxxxxx |      <error: |      <error: |      <error: |xxxxxxxxxxxxx |xxxxxxxxxxxxx |xxxxxxxxxxxxx |xxxxxxxxxxxxx |      <error: |      <error: |      <error: |xxxxxxxxxxxxx |xxxxxxxxxxxxx |xxxxxxxxxxxxx |xxxxxxxxxxxxx |      <error: |      <error: |      <error: |xxxxxxxxxxxxx |xxxxxxxxxxxxx |xxxxxxxxxxxxx |xxxxxxxxxxxxx |      <error: |      <error: |      <error: |xxxxxxxxxxxxx |xxxxxxxxxxxxx |xxxxxxxxxxxxx |xxxxxxxxxxxxx |      <error: |      <error: |      <error: |xxxxxxxxxxxxx |xxxxxxxxxxxxx |xxxxxxxxxxxxx |xxxxxxxxxxxxx |      <error: |      <error: |      <error: |xxxxxxxxxxxxx |xxxxxxxxxxxxx |xxxxxxxxxxxxx |xxxxxxxxxxxxx |      <error: |      <error: |      <error: |xxxxxxxxxxxxx |xxxxxxxxxxxxx |xxxxxxxxxxxxx |xxxxxxxxxxxxx |       0.5000 |       0.5000 |       0.5000 |xxxxxxxxxxxxx |xxxxxxxxxxxxx |xxxxxxxxxxxxx |xxxxxxxxxxxxx |       0.6667 |       0.6667 |       0.6667 |
bpred_bimod.retstack_pushes                   8562 |         8562 |         8562 |xxxxxxxxxxxxx |xxxxxxxxxxxxx |xxxxxxxxxxxxx |xxxxxxxxxxxxx |        16754 |        16754 |        16754 |xxxxxxxxxxxxx |xxxxxxxxxxxxx |xxxxxxxxxxxxx |xxxxxxxxxxxxx |        33138 |        33138 |        33138 |xxxxxxxxxxxxx |xxxxxxxxxxxxx |xxxxxxxxxxxxx |xxxxxxxxxxxxx |        65906 |        65906 |        65906 |xxxxxxxxxxxxx |xxxxxxxxxxxxx |xxxxxxxxxxxxx |xxxxxxxxxxxxx |       131442 |       131442 |       131442 |xxxxxxxxxxxxx |xxxxxxxxxxxxx |xxxxxxxxxxxxx |xxxxxxxxxxxxx |       262514 |       262514 |       262514 |xxxxxxxxxxxxx |xxxxxxxxxxxxx |xxxxxxxxxxxxx |xxxxxxxxxxxxx |       524658 |       524658 |       524658 |xxxxxxxxxxxxx |xxxxxxxxxxxxx |xxxxxxxxxxxxx |xxxxxxxxxxxxx |      1048946 |      1048946 |      1048946 |xxxxxxxxxxxxx |xxxxxxxxxxxxx |xxxxxxxxxxxxx |xxxxxxxxxxxxx |      2097522 |      2097522 |      2097522 |xxxxxxxxxxxxx |xxxxxxxxxxxxx |xxxxxxxxxxxxx |xxxxxxxxxxxxx |      4198351 |      4198351 |      4198351 |xxxxxxxxxxxxx |xxxxxxxxxxxxx |xxxxxxxxxxxxx |xxxxxxxxxxxxx |      8396276 |      8396276 |      8396276 |
bpred_bimod.retstack_pops                     8560 |         8560 |         8560 |xxxxxxxxxxxxx |xxxxxxxxxxxxx |xxxxxxxxxxxxx |xxxxxxxxxxxxx |        16752 |        16752 |        16752 |xxxxxxxxxxxxx |xxxxxxxxxxxxx |xxxxxxxxxxxxx |xxxxxxxxxxxxx |        33136 |        33136 |        33136 |xxxxxxxxxxxxx |xxxxxxxxxxxxx |xxxxxxxxxxxxx |xxxxxxxxxxxxx |        65904 |        65904 |        65904 |xxxxxxxxxxxxx |xxxxxxxxxxxxx |xxxxxxxxxxxxx |xxxxxxxxxxxxx |       131440 |       131440 |       131440 |xxxxxxxxxxxxx |xxxxxxxxxxxxx |xxxxxxxxxxxxx |xxxxxxxxxxxxx |       262512 |       262512 |       262512 |xxxxxxxxxxxxx |xxxxxxxxxxxxx |xxxxxxxxxxxxx |xxxxxxxxxxxxx |       524656 |       524656 |       524656 |xxxxxxxxxxxxx |xxxxxxxxxxxxx |xxxxxxxxxxxxx |xxxxxxxxxxxxx |      1048944 |      1048944 |      1048944 |xxxxxxxxxxxxx |xxxxxxxxxxxxx |xxxxxxxxxxxxx |xxxxxxxxxxxxx |      2097520 |      2097520 |      2097520 |xxxxxxxxxxxxx |xxxxxxxxxxxxx |xxxxxxxxxxxxx |xxxxxxxxxxxxx |      4198349 |      4198349 |      4198349 |xxxxxxxxxxxxx |xxxxxxxxxxxxx |xxxxxxxxxxxxx |xxxxxxxxxxxxx |      8396274 |      8396274 |      8396274 |
bpred_bimod.used_ras.PP                       8560 |         8560 |         8560 |xxxxxxxxxxxxx |xxxxxxxxxxxxx |xxxxxxxxxxxxx |xxxxxxxxxxxxx |        16752 |        16752 |        16752 |xxxxxxxxxxxxx |xxxxxxxxxxxxx |xxxxxxxxxxxxx |xxxxxxxxxxxxx |        33136 |        33136 |        33136 |xxxxxxxxxxxxx |xxxxxxxxxxxxx |xxxxxxxxxxxxx |xxxxxxxxxxxxx |        65904 |        65904 |        65904 |xxxxxxxxxxxxx |xxxxxxxxxxxxx |xxxxxxxxxxxxx |xxxxxxxxxxxxx |       131440 |       131440 |       131440 |xxxxxxxxxxxxx |xxxxxxxxxxxxx |xxxxxxxxxxxxx |xxxxxxxxxxxxx |       262512 |       262512 |       262512 |xxxxxxxxxxxxx |xxxxxxxxxxxxx |xxxxxxxxxxxxx |xxxxxxxxxxxxx |       524656 |       524656 |       524656 |xxxxxxxxxxxxx |xxxxxxxxxxxxx |xxxxxxxxxxxxx |xxxxxxxxxxxxx |      1048944 |      1048944 |      1048944 |xxxxxxxxxxxxx |xxxxxxxxxxxxx |xxxxxxxxxxxxx |xxxxxxxxxxxxx |      2097520 |      2097520 |      2097520 |xxxxxxxxxxxxx |xxxxxxxxxxxxx |xxxxxxxxxxxxx |xxxxxxxxxxxxx |      4198349 |      4198349 |      4198349 |xxxxxxxxxxxxx |xxxxxxxxxxxxx |xxxxxxxxxxxxx |xxxxxxxxxxxxx |      8396274 |      8396274 |      8396274 |
bpred_bimod.ras_hits.PP                       8560 |         8560 |         8560 |xxxxxxxxxxxxx |xxxxxxxxxxxxx |xxxxxxxxxxxxx |xxxxxxxxxxxxx |        16752 |        16752 |        16752 |xxxxxxxxxxxxx |xxxxxxxxxxxxx |xxxxxxxxxxxxx |xxxxxxxxxxxxx |        33136 |        33136 |        33136 |xxxxxxxxxxxxx |xxxxxxxxxxxxx |xxxxxxxxxxxxx |xxxxxxxxxxxxx |        65904 |        65904 |        65904 |xxxxxxxxxxxxx |xxxxxxxxxxxxx |xxxxxxxxxxxxx |xxxxxxxxxxxxx |       131440 |       131440 |       131440 |xxxxxxxxxxxxx |xxxxxxxxxxxxx |xxxxxxxxxxxxx |xxxxxxxxxxxxx |       262512 |       262512 |       262512 |xxxxxxxxxxxxx |xxxxxxxxxxxxx |xxxxxxxxxxxxx |xxxxxxxxxxxxx |       524656 |       524656 |       524656 |xxxxxxxxxxxxx |xxxxxxxxxxxxx |xxxxxxxxxxxxx |xxxxxxxxxxxxx |      1048944 |      1048944 |      1048944 |xxxxxxxxxxxxx |xxxxxxxxxxxxx |xxxxxxxxxxxxx |xxxxxxxxxxxxx |      2097520 |      2097520 |      2097520 |xxxxxxxxxxxxx |xxxxxxxxxxxxx |xxxxxxxxxxxxx |xxxxxxxxxxxxx |      4198349 |      4198349 |      4198349 |xxxxxxxxxxxxx |xxxxxxxxxxxxx |xxxxxxxxxxxxx |xxxxxxxxxxxxx |      8396274 |      8396274 |      8396274 |
bpred_bimod.ras_rate.PP                     1.0000 |       1.0000 |       1.0000 |xxxxxxxxxxxxx |xxxxxxxxxxxxx |xxxxxxxxxxxxx |xxxxxxxxxxxxx |       1.0000 |       1.0000 |       1.0000 |xxxxxxxxxxxxx |xxxxxxxxxxxxx |xxxxxxxxxxxxx |xxxxxxxxxxxxx |       1.0000 |       1.0000 |       1.0000 |xxxxxxxxxxxxx |xxxxxxxxxxxxx |xxxxxxxxxxxxx |xxxxxxxxxxxxx |       1.0000 |       1.0000 |       1.0000 |xxxxxxxxxxxxx |xxxxxxxxxxxxx |xxxxxxxxxxxxx |xxxxxxxxxxxxx |       1.0000 |       1.0000 |       1.0000 |xxxxxxxxxxxxx |xxxxxxxxxxxxx |xxxxxxxxxxxxx |xxxxxxxxxxxxx |       1.0000 |       1.0000 |       1.0000 |xxxxxxxxxxxxx |xxxxxxxxxxxxx |xxxxxxxxxxxxx |xxxxxxxxxxxxx |       1.0000 |       1.0000 |       1.0000 |xxxxxxxxxxxxx |xxxxxxxxxxxxx |xxxxxxxxxxxxx |xxxxxxxxxxxxx |       1.0000 |       1.0000 |       1.0000 |xxxxxxxxxxxxx |xxxxxxxxxxxxx |xxxxxxxxxxxxx |xxxxxxxxxxxxx |       1.0000 |       1.0000 |       1.0000 |xxxxxxxxxxxxx |xxxxxxxxxxxxx |xxxxxxxxxxxxx |xxxxxxxxxxxxx |       1.0000 |       1.0000 |       1.0000 |xxxxxxxxxxxxx |xxxxxxxxxxxxx |xxxxxxxxxxxxx |xxxxxxxxxxxxx |       1.0000 |       1.0000 |       1.0000 |
bpred_2lev.lookups                   xxxxxxxxxxxxx |xxxxxxxxxxxxx |xxxxxxxxxxxxx |       112522 |       112522 |       112522 |       112522 |xxxxxxxxxxxxx |xxxxxxxxxxxxx |xxxxxxxxxxxxx |       236705 |       236705 |       236705 |       236705 |xxxxxxxxxxxxx |xxxxxxxxxxxxx |xxxxxxxxxxxxx |       493772 |       493772 |       493772 |       493772 |xxxxxxxxxxxxx |xxxxxxxxxxxxx |xxxxxxxxxxxxx |      1033159 |      1033159 |      1033159 |      1033159 |xxxxxxxxxxxxx |xxxxxxxxxxxxx |xxxxxxxxxxxxx |      2173135 |      2173135 |      2173135 |      2173135 |xxxxxxxxxxxxx |xxxxxxxxxxxxx |xxxxxxxxxxxxx |      4613469 |      4613469 |      4613469 |      4613469 |xxxxxxxxxxxxx |xxxxxxxxxxxxx |xxxxxxxxxxxxx |      9548939 |      9548939 |      9548939 |      9548939 |xxxxxxxxxxxxx |xxxxxxxxxxxxx |xxxxxxxxxxxxx |     20180967 |     20180967 |     20180967 |     20180967 |xxxxxxxxxxxxx |xxxxxxxxxxxxx |xxxxxxxxxxxxx |     41756950 |     41756950 |     41756950 |     41756950 |xxxxxxxxxxxxx |xxxxxxxxxxxxx |xxxxxxxxxxxxx |    119727684 |    119727684 |    119727684 |    119727684 |xxxxxxxxxxxxx |xxxxxxxxxxxxx |xxxxxxxxxxxxx |    268658386 |    268658386 |    268658386 |    268658386 |
[...]
bpred_2lev.retstack_pushes           xxxxxxxxxxxxx |xxxxxxxxxxxxx |xxxxxxxxxxxxx |         8562 |         8562 |         8562 |         8562 |xxxxxxxxxxxxx |xxxxxxxxxxxxx |xxxxxxxxxxxxx |        16754 |        16754 |        16754 |        16754 |xxxxxxxxxxxxx |xxxxxxxxxxxxx |xxxxxxxxxxxxx |        33138 |        33138 |        33138 |        33138 |xxxxxxxxxxxxx |xxxxxxxxxxxxx |xxxxxxxxxxxxx |        65906 |        65906 |        65906 |        65906 |xxxxxxxxxxxxx |xxxxxxxxxxxxx |xxxxxxxxxxxxx |       131442 |       131442 |       131442 |       131442 |xxxxxxxxxxxxx |xxxxxxxxxxxxx |xxxxxxxxxxxxx |       262514 |       262514 |       262514 |       262514 |xxxxxxxxxxxxx |xxxxxxxxxxxxx |xxxxxxxxxxxxx |       524658 |       524658 |       524658 |       524658 |xxxxxxxxxxxxx |xxxxxxxxxxxxx |xxxxxxxxxxxxx |      1048946 |      1048946 |      1048946 |      1048946 |xxxxxxxxxxxxx |xxxxxxxxxxxxx |xxxxxxxxxxxxx |      2097522 |      2097522 |      2097522 |      2097522 |xxxxxxxxxxxxx |xxxxxxxxxxxxx |xxxxxxxxxxxxx |      4198351 |      4198351 |      4198351 |      4198351 |xxxxxxxxxxxxx |xxxxxxxxxxxxx |xxxxxxxxxxxxx |      8396276 |      8396276 |      8396276 |      8396276 |
bpred_2lev.retstack_pops             xxxxxxxxxxxxx |xxxxxxxxxxxxx |xxxxxxxxxxxxx |         8560 |         8560 |         8560 |         8560 |xxxxxxxxxxxxx |xxxxxxxxxxxxx |xxxxxxxxxxxxx |        16752 |        16752 |        16752 |        16752 |xxxxxxxxxxxxx |xxxxxxxxxxxxx |xxxxxxxxxxxxx |        33136 |        33136 |        33136 |        33136 |xxxxxxxxxxxxx |xxxxxxxxxxxxx |xxxxxxxxxxxxx |        65904 |        65904 |        65904 |        65904 |xxxxxxxxxxxxx |xxxxxxxxxxxxx |xxxxxxxxxxxxx |       131440 |       131440 |       131440 |       131440 |xxxxxxxxxxxxx |xxxxxxxxxxxxx |xxxxxxxxxxxxx |       262512 |       262512 |       262512 |       262512 |xxxxxxxxxxxxx |xxxxxxxxxxxxx |xxxxxxxxxxxxx |       524656 |       524656 |       524656 |       524656 |xxxxxxxxxxxxx |xxxxxxxxxxxxx |xxxxxxxxxxxxx |      1048944 |      1048944 |      1048944 |      1048944 |xxxxxxxxxxxxx |xxxxxxxxxxxxx |xxxxxxxxxxxxx |      2097520 |      2097520 |      2097520 |      2097520 |xxxxxxxxxxxxx |xxxxxxxxxxxxx |xxxxxxxxxxxxx |      4198349 |      4198349 |      4198349 |      4198349 |xxxxxxxxxxxxx |xxxxxxxxxxxxx |xxxxxxxxxxxxx |      8396274 |      8396274 |      8396274 |      8396274 |
bpred_2lev.used_ras.PP               xxxxxxxxxxxxx |xxxxxxxxxxxxx |xxxxxxxxxxxxx |         8560 |         8560 |         8560 |         8560 |xxxxxxxxxxxxx |xxxxxxxxxxxxx |xxxxxxxxxxxxx |        16752 |        16752 |        16752 |        16752 |xxxxxxxxxxxxx |xxxxxxxxxxxxx |xxxxxxxxxxxxx |        33136 |        33136 |        33136 |        33136 |xxxxxxxxxxxxx |xxxxxxxxxxxxx |xxxxxxxxxxxxx |        65904 |        65904 |        65904 |        65904 |xxxxxxxxxxxxx |xxxxxxxxxxxxx |xxxxxxxxxxxxx |       131440 |       131440 |       131440 |       131440 |xxxxxxxxxxxxx |xxxxxxxxxxxxx |xxxxxxxxxxxxx |       262512 |       262512 |       262512 |       262512 |xxxxxxxxxxxxx |xxxxxxxxxxxxx |xxxxxxxxxxxxx |       524656 |       524656 |       524656 |       524656 |xxxxxxxxxxxxx |xxxxxxxxxxxxx |xxxxxxxxxxxxx |      1048944 |      1048944 |      1048944 |      1048944 |xxxxxxxxxxxxx |xxxxxxxxxxxxx |xxxxxxxxxxxxx |      2097520 |      2097520 |      2097520 |      2097520 |xxxxxxxxxxxxx |xxxxxxxxxxxxx |xxxxxxxxxxxxx |      4198349 |      4198349 |      4198349 |      4198349 |xxxxxxxxxxxxx |xxxxxxxxxxxxx |xxxxxxxxxxxxx |      8396274 |      8396274 |      8396274 |      8396274 |
bpred_2lev.ras_hits.PP               xxxxxxxxxxxxx |xxxxxxxxxxxxx |xxxxxxxxxxxxx |         8560 |         8560 |         8560 |         8560 |xxxxxxxxxxxxx |xxxxxxxxxxxxx |xxxxxxxxxxxxx |        16752 |        16752 |        16752 |        16752 |xxxxxxxxxxxxx |xxxxxxxxxxxxx |xxxxxxxxxxxxx |        33136 |        33136 |        33136 |        33136 |xxxxxxxxxxxxx |xxxxxxxxxxxxx |xxxxxxxxxxxxx |        65904 |        65904 |        65904 |        65904 |xxxxxxxxxxxxx |xxxxxxxxxxxxx |xxxxxxxxxxxxx |       131440 |       131440 |       131440 |       131440 |xxxxxxxxxxxxx |xxxxxxxxxxxxx |xxxxxxxxxxxxx |       262512 |       262512 |       262512 |       262512 |xxxxxxxxxxxxx |xxxxxxxxxxxxx |xxxxxxxxxxxxx |       524656 |       524656 |       524656 |       524656 |xxxxxxxxxxxxx |xxxxxxxxxxxxx |xxxxxxxxxxxxx |      1048944 |      1048944 |      1048944 |      1048944 |xxxxxxxxxxxxx |xxxxxxxxxxxxx |xxxxxxxxxxxxx |      2097520 |      2097520 |      2097520 |      2097520 |xxxxxxxxxxxxx |xxxxxxxxxxxxx |xxxxxxxxxxxxx |      4198349 |      4198349 |      4198349 |      4198349 |xxxxxxxxxxxxx |xxxxxxxxxxxxx |xxxxxxxxxxxxx |      8396274 |      8396274 |      8396274 |      8396274 |
bpred_2lev.ras_rate.PP               xxxxxxxxxxxxx |xxxxxxxxxxxxx |xxxxxxxxxxxxx |       1.0000 |       1.0000 |       1.0000 |       1.0000 |xxxxxxxxxxxxx |xxxxxxxxxxxxx |xxxxxxxxxxxxx |       1.0000 |       1.0000 |       1.0000 |       1.0000 |xxxxxxxxxxxxx |xxxxxxxxxxxxx |xxxxxxxxxxxxx |       1.0000 |       1.0000 |       1.0000 |       1.0000 |xxxxxxxxxxxxx |xxxxxxxxxxxxx |xxxxxxxxxxxxx |       1.0000 |       1.0000 |       1.0000 |       1.0000 |xxxxxxxxxxxxx |xxxxxxxxxxxxx |xxxxxxxxxxxxx |       1.0000 |       1.0000 |       1.0000 |       1.0000 |xxxxxxxxxxxxx |xxxxxxxxxxxxx |xxxxxxxxxxxxx |       1.0000 |       1.0000 |       1.0000 |       1.0000 |xxxxxxxxxxxxx |xxxxxxxxxxxxx |xxxxxxxxxxxxx |       1.0000 |       1.0000 |       1.0000 |       1.0000 |xxxxxxxxxxxxx |xxxxxxxxxxxxx |xxxxxxxxxxxxx |       1.0000 |       1.0000 |       1.0000 |       1.0000 |xxxxxxxxxxxxx |xxxxxxxxxxxxx |xxxxxxxxxxxxx |       1.0000 |       1.0000 |       1.0000 |       1.0000 |xxxxxxxxxxxxx |xxxxxxxxxxxxx |xxxxxxxxxxxxx |       1.0000 |       1.0000 |       1.0000 |       1.0000 |xxxxxxxxxxxxx |xxxxxxxxxxxxx |xxxxxxxxxxxxx |       1.0000 |       1.0000 |       1.0000 |       1.0000 |

Command list: 
	sslittle-na-sstrix-gcc -Wall -O3 -funroll-loops  -DRANDOM_SIZE=4096 -DSEED=0 -DSORT=multi_quicksort multi_quicksort1820981449.c simpleMain.c -o multi_quicksort1096215935
	sim-cache -cache:dl1 dl1:256:32:1:l -cache:dl2 dl2:131072:32:1:l -cache:il1 il1:256:32:1:l -cache:il2 dl2 multi_quicksort1096215935
	sim-cache -cache:dl1 dl1:256:32:1:l -cache:dl2 dl2:65536:32:1:l -cache:il1 il1:256:32:1:l -cache:il2 dl2 multi_quicksort1096215935
	sim-cache -cache:dl1 dl1:1:32:256:l -cache:dl2 dl2:1:32:131072:l -cache:il1 il1:1:32:256:l -cache:il2 dl2 multi_quicksort1096215935
	sim-cache -cache:dl1 dl1:1:32:256:l -cache:dl2 dl2:1:32:65536:l -cache:il1 il1:1:32:256:l -cache:il2 dl2 multi_quicksort1096215935
	sim-bpred -bpred bimod -bpred:bimod 512 multi_quicksort1096215935
	sim-bpred -bpred bimod -bpred:bimod 1024 multi_quicksort1096215935
	sim-bpred -bpred bimod -bpred:bimod 2048 multi_quicksort1096215935
	sim-bpred -bpred 2lev -bpred:2lev 1 512 10 1 multi_quicksort1096215935
	sim-bpred -bpred 2lev -bpred:2lev 1 1024 10 1 multi_quicksort1096215935
	sim-bpred -bpred 2lev -bpred:2lev 1 2048 10 1 multi_quicksort1096215935
	sim-bpred -bpred 2lev -bpred:2lev 1 4096 10 1 multi_quicksort1096215935
	sslittle-na-sstrix-gcc -Wall -O3 -funroll-loops  -DRANDOM_SIZE=8192 -DSEED=0 -DSORT=multi_quicksort multi_quicksort1820981449.c simpleMain.c -o multi_quicksort1096215935
	sim-cache -cache:dl1 dl1:256:32:1:l -cache:dl2 dl2:131072:32:1:l -cache:il1 il1:256:32:1:l -cache:il2 dl2 multi_quicksort1096215935
	sim-cache -cache:dl1 dl1:256:32:1:l -cache:dl2 dl2:65536:32:1:l -cache:il1 il1:256:32:1:l -cache:il2 dl2 multi_quicksort1096215935
	sim-cache -cache:dl1 dl1:1:32:256:l -cache:dl2 dl2:1:32:131072:l -cache:il1 il1:1:32:256:l -cache:il2 dl2 multi_quicksort1096215935
	sim-cache -cache:dl1 dl1:1:32:256:l -cache:dl2 dl2:1:32:65536:l -cache:il1 il1:1:32:256:l -cache:il2 dl2 multi_quicksort1096215935
	sim-bpred -bpred bimod -bpred:bimod 512 multi_quicksort1096215935
	sim-bpred -bpred bimod -bpred:bimod 1024 multi_quicksort1096215935
	sim-bpred -bpred bimod -bpred:bimod 2048 multi_quicksort1096215935
	sim-bpred -bpred 2lev -bpred:2lev 1 512 10 1 multi_quicksort1096215935
	sim-bpred -bpred 2lev -bpred:2lev 1 1024 10 1 multi_quicksort1096215935
	sim-bpred -bpred 2lev -bpred:2lev 1 2048 10 1 multi_quicksort1096215935
	sim-bpred -bpred 2lev -bpred:2lev 1 4096 10 1 multi_quicksort1096215935
	sslittle-na-sstrix-gcc -Wall -O3 -funroll-loops  -DRANDOM_SIZE=16384 -DSEED=0 -DSORT=multi_quicksort multi_quicksort1820981449.c simpleMain.c -o multi_quicksort1096215935
	sim-cache -cache:dl1 dl1:256:32:1:l -cache:dl2 dl2:131072:32:1:l -cache:il1 il1:256:32:1:l -cache:il2 dl2 multi_quicksort1096215935
	sim-cache -cache:dl1 dl1:256:32:1:l -cache:dl2 dl2:65536:32:1:l -cache:il1 il1:256:32:1:l -cache:il2 dl2 multi_quicksort1096215935
	sim-cache -cache:dl1 dl1:1:32:256:l -cache:dl2 dl2:1:32:131072:l -cache:il1 il1:1:32:256:l -cache:il2 dl2 multi_quicksort1096215935
	sim-cache -cache:dl1 dl1:1:32:256:l -cache:dl2 dl2:1:32:65536:l -cache:il1 il1:1:32:256:l -cache:il2 dl2 multi_quicksort1096215935
	sim-bpred -bpred bimod -bpred:bimod 512 multi_quicksort1096215935
	sim-bpred -bpred bimod -bpred:bimod 1024 multi_quicksort1096215935
	sim-bpred -bpred bimod -bpred:bimod 2048 multi_quicksort1096215935
	sim-bpred -bpred 2lev -bpred:2lev 1 512 10 1 multi_quicksort1096215935
	sim-bpred -bpred 2lev -bpred:2lev 1 1024 10 1 multi_quicksort1096215935
	sim-bpred -bpred 2lev -bpred:2lev 1 2048 10 1 multi_quicksort1096215935
	sim-bpred -bpred 2lev -bpred:2lev 1 4096 10 1 multi_quicksort1096215935
	sslittle-na-sstrix-gcc -Wall -O3 -funroll-loops  -DRANDOM_SIZE=32768 -DSEED=0 -DSORT=multi_quicksort multi_quicksort1820981449.c simpleMain.c -o multi_quicksort1096215935
	sim-cache -cache:dl1 dl1:256:32:1:l -cache:dl2 dl2:131072:32:1:l -cache:il1 il1:256:32:1:l -cache:il2 dl2 multi_quicksort1096215935
	sim-cache -cache:dl1 dl1:256:32:1:l -cache:dl2 dl2:65536:32:1:l -cache:il1 il1:256:32:1:l -cache:il2 dl2 multi_quicksort1096215935
	sim-cache -cache:dl1 dl1:1:32:256:l -cache:dl2 dl2:1:32:131072:l -cache:il1 il1:1:32:256:l -cache:il2 dl2 multi_quicksort1096215935
	sim-cache -cache:dl1 dl1:1:32:256:l -cache:dl2 dl2:1:32:65536:l -cache:il1 il1:1:32:256:l -cache:il2 dl2 multi_quicksort1096215935
	sim-bpred -bpred bimod -bpred:bimod 512 multi_quicksort1096215935
	sim-bpred -bpred bimod -bpred:bimod 1024 multi_quicksort1096215935
	sim-bpred -bpred bimod -bpred:bimod 2048 multi_quicksort1096215935
	sim-bpred -bpred 2lev -bpred:2lev 1 512 10 1 multi_quicksort1096215935
	sim-bpred -bpred 2lev -bpred:2lev 1 1024 10 1 multi_quicksort1096215935
	sim-bpred -bpred 2lev -bpred:2lev 1 2048 10 1 multi_quicksort1096215935
	sim-bpred -bpred 2lev -bpred:2lev 1 4096 10 1 multi_quicksort1096215935
	sslittle-na-sstrix-gcc -Wall -O3 -funroll-loops  -DRANDOM_SIZE=65536 -DSEED=0 -DSORT=multi_quicksort multi_quicksort1820981449.c simpleMain.c -o multi_quicksort1096215935
	sim-cache -cache:dl1 dl1:256:32:1:l -cache:dl2 dl2:131072:32:1:l -cache:il1 il1:256:32:1:l -cache:il2 dl2 multi_quicksort1096215935
	sim-cache -cache:dl1 dl1:256:32:1:l -cache:dl2 dl2:65536:32:1:l -cache:il1 il1:256:32:1:l -cache:il2 dl2 multi_quicksort1096215935
	sim-cache -cache:dl1 dl1:1:32:256:l -cache:dl2 dl2:1:32:131072:l -cache:il1 il1:1:32:256:l -cache:il2 dl2 multi_quicksort1096215935
	sim-cache -cache:dl1 dl1:1:32:256:l -cache:dl2 dl2:1:32:65536:l -cache:il1 il1:1:32:256:l -cache:il2 dl2 multi_quicksort1096215935
	sim-bpred -bpred bimod -bpred:bimod 512 multi_quicksort1096215935
	sim-bpred -bpred bimod -bpred:bimod 1024 multi_quicksort1096215935
	sim-bpred -bpred bimod -bpred:bimod 2048 multi_quicksort1096215935
	sim-bpred -bpred 2lev -bpred:2lev 1 512 10 1 multi_quicksort1096215935
	sim-bpred -bpred 2lev -bpred:2lev 1 1024 10 1 multi_quicksort1096215935
	sim-bpred -bpred 2lev -bpred:2lev 1 2048 10 1 multi_quicksort1096215935
	sim-bpred -bpred 2lev -bpred:2lev 1 4096 10 1 multi_quicksort1096215935
	sslittle-na-sstrix-gcc -Wall -O3 -funroll-loops  -DRANDOM_SIZE=131072 -DSEED=0 -DSORT=multi_quicksort multi_quicksort1820981449.c simpleMain.c -o multi_quicksort1096215935
	sim-cache -cache:dl1 dl1:256:32:1:l -cache:dl2 dl2:131072:32:1:l -cache:il1 il1:256:32:1:l -cache:il2 dl2 multi_quicksort1096215935
	sim-cache -cache:dl1 dl1:256:32:1:l -cache:dl2 dl2:65536:32:1:l -cache:il1 il1:256:32:1:l -cache:il2 dl2 multi_quicksort1096215935
	sim-cache -cache:dl1 dl1:1:32:256:l -cache:dl2 dl2:1:32:131072:l -cache:il1 il1:1:32:256:l -cache:il2 dl2 multi_quicksort1096215935
	sim-cache -cache:dl1 dl1:1:32:256:l -cache:dl2 dl2:1:32:65536:l -cache:il1 il1:1:32:256:l -cache:il2 dl2 multi_quicksort1096215935
	sim-bpred -bpred bimod -bpred:bimod 512 multi_quicksort1096215935
	sim-bpred -bpred bimod -bpred:bimod 1024 multi_quicksort1096215935
	sim-bpred -bpred bimod -bpred:bimod 2048 multi_quicksort1096215935
	sim-bpred -bpred 2lev -bpred:2lev 1 512 10 1 multi_quicksort1096215935
	sim-bpred -bpred 2lev -bpred:2lev 1 1024 10 1 multi_quicksort1096215935
	sim-bpred -bpred 2lev -bpred:2lev 1 2048 10 1 multi_quicksort1096215935
	sim-bpred -bpred 2lev -bpred:2lev 1 4096 10 1 multi_quicksort1096215935
	sslittle-na-sstrix-gcc -Wall -O3 -funroll-loops  -DRANDOM_SIZE=262144 -DSEED=0 -DSORT=multi_quicksort multi_quicksort1820981449.c simpleMain.c -o multi_quicksort1096215935
	sim-cache -cache:dl1 dl1:256:32:1:l -cache:dl2 dl2:131072:32:1:l -cache:il1 il1:256:32:1:l -cache:il2 dl2 multi_quicksort1096215935
	sim-cache -cache:dl1 dl1:256:32:1:l -cache:dl2 dl2:65536:32:1:l -cache:il1 il1:256:32:1:l -cache:il2 dl2 multi_quicksort1096215935
	sim-cache -cache:dl1 dl1:1:32:256:l -cache:dl2 dl2:1:32:131072:l -cache:il1 il1:1:32:256:l -cache:il2 dl2 multi_quicksort1096215935
	sim-cache -cache:dl1 dl1:1:32:256:l -cache:dl2 dl2:1:32:65536:l -cache:il1 il1:1:32:256:l -cache:il2 dl2 multi_quicksort1096215935
	sim-bpred -bpred bimod -bpred:bimod 512 multi_quicksort1096215935
	sim-bpred -bpred bimod -bpred:bimod 1024 multi_quicksort1096215935
	sim-bpred -bpred bimod -bpred:bimod 2048 multi_quicksort1096215935
	sim-bpred -bpred 2lev -bpred:2lev 1 512 10 1 multi_quicksort1096215935
	sim-bpred -bpred 2lev -bpred:2lev 1 1024 10 1 multi_quicksort1096215935
	sim-bpred -bpred 2lev -bpred:2lev 1 2048 10 1 multi_quicksort1096215935
	sim-bpred -bpred 2lev -bpred:2lev 1 4096 10 1 multi_quicksort1096215935
	sslittle-na-sstrix-gcc -Wall -O3 -funroll-loops  -DRANDOM_SIZE=524288 -DSEED=0 -DSORT=multi_quicksort multi_quicksort1820981449.c simpleMain.c -o multi_quicksort1096215935
	sim-cache -cache:dl1 dl1:256:32:1:l -cache:dl2 dl2:131072:32:1:l -cache:il1 il1:256:32:1:l -cache:il2 dl2 multi_quicksort1096215935
	sim-cache -cache:dl1 dl1:256:32:1:l -cache:dl2 dl2:65536:32:1:l -cache:il1 il1:256:32:1:l -cache:il2 dl2 multi_quicksort1096215935
	sim-cache -cache:dl1 dl1:1:32:256:l -cache:dl2 dl2:1:32:131072:l -cache:il1 il1:1:32:256:l -cache:il2 dl2 multi_quicksort1096215935
	sim-cache -cache:dl1 dl1:1:32:256:l -cache:dl2 dl2:1:32:65536:l -cache:il1 il1:1:32:256:l -cache:il2 dl2 multi_quicksort1096215935
	sim-bpred -bpred bimod -bpred:bimod 512 multi_quicksort1096215935
	sim-bpred -bpred bimod -bpred:bimod 1024 multi_quicksort1096215935
	sim-bpred -bpred bimod -bpred:bimod 2048 multi_quicksort1096215935
	sim-bpred -bpred 2lev -bpred:2lev 1 512 10 1 multi_quicksort1096215935
	sim-bpred -bpred 2lev -bpred:2lev 1 1024 10 1 multi_quicksort1096215935
	sim-bpred -bpred 2lev -bpred:2lev 1 2048 10 1 multi_quicksort1096215935
	sim-bpred -bpred 2lev -bpred:2lev 1 4096 10 1 multi_quicksort1096215935
	sslittle-na-sstrix-gcc -Wall -O3 -funroll-loops  -DRANDOM_SIZE=1048576 -DSEED=0 -DSORT=multi_quicksort multi_quicksort1820981449.c simpleMain.c -o multi_quicksort1096215935
	sim-cache -cache:dl1 dl1:256:32:1:l -cache:dl2 dl2:131072:32:1:l -cache:il1 il1:256:32:1:l -cache:il2 dl2 multi_quicksort1096215935
	sim-cache -cache:dl1 dl1:256:32:1:l -cache:dl2 dl2:65536:32:1:l -cache:il1 il1:256:32:1:l -cache:il2 dl2 multi_quicksort1096215935
	sim-cache -cache:dl1 dl1:1:32:256:l -cache:dl2 dl2:1:32:131072:l -cache:il1 il1:1:32:256:l -cache:il2 dl2 multi_quicksort1096215935
	sim-cache -cache:dl1 dl1:1:32:256:l -cache:dl2 dl2:1:32:65536:l -cache:il1 il1:1:32:256:l -cache:il2 dl2 multi_quicksort1096215935
	sim-bpred -bpred bimod -bpred:bimod 512 multi_quicksort1096215935
	sim-bpred -bpred bimod -bpred:bimod 1024 multi_quicksort1096215935
	sim-bpred -bpred bimod -bpred:bimod 2048 multi_quicksort1096215935
	sim-bpred -bpred 2lev -bpred:2lev 1 512 10 1 multi_quicksort1096215935
	sim-bpred -bpred 2lev -bpred:2lev 1 1024 10 1 multi_quicksort1096215935
	sim-bpred -bpred 2lev -bpred:2lev 1 2048 10 1 multi_quicksort1096215935
	sim-bpred -bpred 2lev -bpred:2lev 1 4096 10 1 multi_quicksort1096215935
	sslittle-na-sstrix-gcc -Wall -O3 -funroll-loops  -DRANDOM_SIZE=2097152 -DSEED=0 -DSORT=multi_quicksort multi_quicksort1820981449.c simpleMain.c -o multi_quicksort1096215935
	sim-cache -cache:dl1 dl1:256:32:1:l -cache:dl2 dl2:131072:32:1:l -cache:il1 il1:256:32:1:l -cache:il2 dl2 multi_quicksort1096215935
	sim-cache -cache:dl1 dl1:256:32:1:l -cache:dl2 dl2:65536:32:1:l -cache:il1 il1:256:32:1:l -cache:il2 dl2 multi_quicksort1096215935
	sim-cache -cache:dl1 dl1:1:32:256:l -cache:dl2 dl2:1:32:131072:l -cache:il1 il1:1:32:256:l -cache:il2 dl2 multi_quicksort1096215935
	sim-cache -cache:dl1 dl1:1:32:256:l -cache:dl2 dl2:1:32:65536:l -cache:il1 il1:1:32:256:l -cache:il2 dl2 multi_quicksort1096215935
	sim-bpred -bpred bimod -bpred:bimod 512 multi_quicksort1096215935
	sim-bpred -bpred bimod -bpred:bimod 1024 multi_quicksort1096215935
	sim-bpred -bpred bimod -bpred:bimod 2048 multi_quicksort1096215935
	sim-bpred -bpred 2lev -bpred:2lev 1 512 10 1 multi_quicksort1096215935
	sim-bpred -bpred 2lev -bpred:2lev 1 1024 10 1 multi_quicksort1096215935
	sim-bpred -bpred 2lev -bpred:2lev 1 2048 10 1 multi_quicksort1096215935
	sim-bpred -bpred 2lev -bpred:2lev 1 4096 10 1 multi_quicksort1096215935
	sslittle-na-sstrix-gcc -Wall -O3 -funroll-loops  -DRANDOM_SIZE=4194304 -DSEED=0 -DSORT=multi_quicksort multi_quicksort1820981449.c simpleMain.c -o multi_quicksort1096215935
	sim-cache -cache:dl1 dl1:256:32:1:l -cache:dl2 dl2:131072:32:1:l -cache:il1 il1:256:32:1:l -cache:il2 dl2 multi_quicksort1096215935
	sim-cache -cache:dl1 dl1:256:32:1:l -cache:dl2 dl2:65536:32:1:l -cache:il1 il1:256:32:1:l -cache:il2 dl2 multi_quicksort1096215935
	sim-cache -cache:dl1 dl1:1:32:256:l -cache:dl2 dl2:1:32:131072:l -cache:il1 il1:1:32:256:l -cache:il2 dl2 multi_quicksort1096215935
	sim-cache -cache:dl1 dl1:1:32:256:l -cache:dl2 dl2:1:32:65536:l -cache:il1 il1:1:32:256:l -cache:il2 dl2 multi_quicksort1096215935
	sim-bpred -bpred bimod -bpred:bimod 512 multi_quicksort1096215935
	sim-bpred -bpred bimod -bpred:bimod 1024 multi_quicksort1096215935
	sim-bpred -bpred bimod -bpred:bimod 2048 multi_quicksort1096215935
	sim-bpred -bpred 2lev -bpred:2lev 1 512 10 1 multi_quicksort1096215935
	sim-bpred -bpred 2lev -bpred:2lev 1 1024 10 1 multi_quicksort1096215935
	sim-bpred -bpred 2lev -bpred:2lev 1 2048 10 1 multi_quicksort1096215935
	sim-bpred -bpred 2lev -bpred:2lev 1 4096 10 1 multi_quicksort1096215935
