Mon Apr  5 17:44:01 2004
Run as: "./simple -c  multi_quicksort_seq"
-------------------------------------------------------------------------------------------------
sim-cache                                     4096 |         4096 |         4096 |         4096 |         8192 |         8192 |         8192 |         8192 |        16384 |        16384 |        16384 |        16384 |        32768 |        32768 |        32768 |        32768 |        65536 |        65536 |        65536 |        65536 |       131072 |       131072 |       131072 |       131072 |       262144 |       262144 |       262144 |       262144 |       524288 |       524288 |       524288 |       524288 |      1048576 |      1048576 |      1048576 |      1048576 |      2097152 |      2097152 |      2097152 |      2097152 |      4194304 |      4194304 |      4194304 |      4194304 |
-cache:dl1 dl1:256:32:1:l -cache:dl2 dl2:131072:32:1:l -cache:il1 il1:256:32:1:l -cache:il2 dl2
-cache:dl1 dl1:256:32:1:l -cache:dl2 dl2:65536:32:1:l -cache:il1 il1:256:32:1:l -cache:il2 dl2
-cache:dl1 dl1:1:32:256:l -cache:dl2 dl2:1:32:131072:l -cache:il1 il1:1:32:256:l -cache:il2 dl2
-cache:dl1 dl1:1:32:256:l -cache:dl2 dl2:1:32:65536:l -cache:il1 il1:1:32:256:l -cache:il2 dl2
-------------------------------------------------------------------------------------------------
sim_num_insn                                609568 |       609568 |       609568 |       609568 |      1285079 |      1285079 |      1285079 |      1285079 |      2676876 |      2676876 |      2676876 |      2676876 |      5607140 |      5607140 |      5607140 |      5607140 |     11808513 |     11808513 |     11808513 |     11808513 |     25116949 |     25116949 |     25116949 |     25116949 |     51919202 |     51919202 |     51919202 |     51919202 |    110139278 |    110139278 |    110139278 |    110139278 |    227785029 |    227785029 |    227785029 |    227785029 |    652633668 |    652633668 |    652633668 |    652633668 |   1422456183 |   1422456183 |   1422456183 |   1422456183 |
sim_num_refs                                188166 |       188166 |       188166 |       188166 |       386185 |       386185 |       386185 |       386185 |       793399 |       793399 |       793399 |       793399 |      1645320 |      1645320 |      1645320 |      1645320 |      3424352 |      3424352 |      3424352 |      3424352 |      7167007 |      7167007 |      7167007 |      7167007 |     14786861 |     14786861 |     14786861 |     14786861 |     30885629 |     30885629 |     30885629 |     30885629 |     63692233 |     63692233 |     63692233 |     63692233 |    167599856 |    167599856 |    167599856 |    167599856 |    354847718 |    354847718 |    354847718 |    354847718 |
sim_elapsed_time                                 1 |            1 |            7 |            3 |            1 |            1 |           10 |            5 |            1 |            1 |           15 |            8 |            1 |            2 |           26 |           14 |            3 |            3 |           49 |           25 |            7 |            7 |          131 |           90 |           28 |           27 |          329 |          157 |           58 |           57 |          564 |          230 |          120 |          122 |          797 |          296 |          346 |          352 |         1048 |          546 |          733 |          721 |         1560 |          963 |
sim_inst_rate                          609568.0000 |  609568.0000 |   87081.1429 |  203189.3333 | 1285079.0000 | 1285079.0000 |  128507.9000 |  257015.8000 | 2676876.0000 | 2676876.0000 |  178458.4000 |  334609.5000 | 5607140.0000 | 2803570.0000 |  215659.2308 |  400510.0000 | 3936171.0000 | 3936171.0000 |  240990.0612 |  472340.5200 | 3588135.5714 | 3588135.5714 |  191732.4351 |  279077.2111 | 1854257.2143 | 1922933.4074 |  157809.1246 |  330695.5541 | 1898953.0690 | 1932268.0351 |  195282.4078 |  478866.4261 | 1898208.5750 | 1867090.4016 |  285803.0477 |  769544.0169 | 1886224.4740 | 1854072.9205 |  622742.0496 | 1195299.7582 | 1940595.0655 | 1972893.4577 |  911830.8865 | 1477109.2243 |
il1.accesses                                609568 |       609568 |       609568 |       609568 |      1285079 |      1285079 |      1285079 |      1285079 |      2676876 |      2676876 |      2676876 |      2676876 |      5607140 |      5607140 |      5607140 |      5607140 |     11808513 |     11808513 |     11808513 |     11808513 |     25116949 |     25116949 |     25116949 |     25116949 |     51919202 |     51919202 |     51919202 |     51919202 |    110139278 |    110139278 |    110139278 |    110139278 |    227785029 |    227785029 |    227785029 |    227785029 |    652633668 |    652633668 |    652633668 |    652633668 |   1422456183 |   1422456183 |   1422456183 |   1422456183 |
il1.hits                                    609054 |       609054 |       609138 |       609138 |      1284564 |      1284564 |      1284648 |      1284648 |      2676338 |      2676338 |      2676426 |      2676426 |      5606608 |      5606608 |      5606696 |      5606696 |     11807977 |     11807977 |     11808065 |     11808065 |     25116417 |     25116417 |     25116505 |     25116505 |     51918666 |     51918666 |     51918754 |     51918754 |    110138755 |    110138755 |    110138843 |    110138843 |    227784491 |    227784491 |    227784579 |    227784579 |    652632875 |    652632875 |    652633021 |    652633021 |   1422455380 |   1422455380 |   1422455528 |   1422455528 |
il1.misses                                     514 |          514 |          430 |          430 |          515 |          515 |          431 |          431 |          538 |          538 |          450 |          450 |          532 |          532 |          444 |          444 |          536 |          536 |          448 |          448 |          532 |          532 |          444 |          444 |          536 |          536 |          448 |          448 |          523 |          523 |          435 |          435 |          538 |          538 |          450 |          450 |          793 |          793 |          647 |          647 |          803 |          803 |          655 |          655 |
il1.replacements                               286 |          286 |          174 |          174 |          285 |          285 |          175 |          175 |          308 |          308 |          194 |          194 |          301 |          301 |          188 |          188 |          305 |          305 |          192 |          192 |          301 |          301 |          188 |          188 |          305 |          305 |          192 |          192 |          294 |          294 |          179 |          179 |          307 |          307 |          194 |          194 |          537 |          537 |          391 |          391 |          547 |          547 |          399 |          399 |
il1.writebacks                                   0 |            0 |            0 |            0 |            0 |            0 |            0 |            0 |            0 |            0 |            0 |            0 |            0 |            0 |            0 |            0 |            0 |            0 |            0 |            0 |            0 |            0 |            0 |            0 |            0 |            0 |            0 |            0 |            0 |            0 |            0 |            0 |            0 |            0 |            0 |            0 |            0 |            0 |            0 |            0 |            0 |            0 |            0 |            0 |
il1.invalidations                                0 |            0 |            0 |            0 |            0 |            0 |            0 |            0 |            0 |            0 |            0 |            0 |            0 |            0 |            0 |            0 |            0 |            0 |            0 |            0 |            0 |            0 |            0 |            0 |            0 |            0 |            0 |            0 |            0 |            0 |            0 |            0 |            0 |            0 |            0 |            0 |            0 |            0 |            0 |            0 |            0 |            0 |            0 |            0 |
il1.miss_rate                               0.0008 |       0.0008 |       0.0007 |       0.0007 |       0.0004 |       0.0004 |       0.0003 |       0.0003 |       0.0002 |       0.0002 |       0.0002 |       0.0002 |       0.0001 |       0.0001 |       0.0001 |       0.0001 |       0.0000 |       0.0000 |       0.0000 |       0.0000 |       0.0000 |       0.0000 |       0.0000 |       0.0000 |       0.0000 |       0.0000 |       0.0000 |       0.0000 |       0.0000 |       0.0000 |       0.0000 |       0.0000 |       0.0000 |       0.0000 |       0.0000 |       0.0000 |       0.0000 |       0.0000 |       0.0000 |       0.0000 |       0.0000 |       0.0000 |       0.0000 |       0.0000 |
il1.repl_rate                               0.0005 |       0.0005 |       0.0003 |       0.0003 |       0.0002 |       0.0002 |       0.0001 |       0.0001 |       0.0001 |       0.0001 |       0.0001 |       0.0001 |       0.0001 |       0.0001 |       0.0000 |       0.0000 |       0.0000 |       0.0000 |       0.0000 |       0.0000 |       0.0000 |       0.0000 |       0.0000 |       0.0000 |       0.0000 |       0.0000 |       0.0000 |       0.0000 |       0.0000 |       0.0000 |       0.0000 |       0.0000 |       0.0000 |       0.0000 |       0.0000 |       0.0000 |       0.0000 |       0.0000 |       0.0000 |       0.0000 |       0.0000 |       0.0000 |       0.0000 |       0.0000 |
il1.wb_rate                                 0.0000 |       0.0000 |       0.0000 |       0.0000 |       0.0000 |       0.0000 |       0.0000 |       0.0000 |       0.0000 |       0.0000 |       0.0000 |       0.0000 |       0.0000 |       0.0000 |       0.0000 |       0.0000 |       0.0000 |       0.0000 |       0.0000 |       0.0000 |       0.0000 |       0.0000 |       0.0000 |       0.0000 |       0.0000 |       0.0000 |       0.0000 |       0.0000 |       0.0000 |       0.0000 |       0.0000 |       0.0000 |       0.0000 |       0.0000 |       0.0000 |       0.0000 |       0.0000 |       0.0000 |       0.0000 |       0.0000 |       0.0000 |       0.0000 |       0.0000 |       0.0000 |
il1.inv_rate                                0.0000 |       0.0000 |       0.0000 |       0.0000 |       0.0000 |       0.0000 |       0.0000 |       0.0000 |       0.0000 |       0.0000 |       0.0000 |       0.0000 |       0.0000 |       0.0000 |       0.0000 |       0.0000 |       0.0000 |       0.0000 |       0.0000 |       0.0000 |       0.0000 |       0.0000 |       0.0000 |       0.0000 |       0.0000 |       0.0000 |       0.0000 |       0.0000 |       0.0000 |       0.0000 |       0.0000 |       0.0000 |       0.0000 |       0.0000 |       0.0000 |       0.0000 |       0.0000 |       0.0000 |       0.0000 |       0.0000 |       0.0000 |       0.0000 |       0.0000 |       0.0000 |
dl1.accesses                                188236 |       188236 |       188236 |       188236 |       386255 |       386255 |       386255 |       386255 |       793469 |       793469 |       793469 |       793469 |      1645390 |      1645390 |      1645390 |      1645390 |      3424422 |      3424422 |      3424422 |      3424422 |      7167077 |      7167077 |      7167077 |      7167077 |     14786931 |     14786931 |     14786931 |     14786931 |     30885699 |     30885699 |     30885699 |     30885699 |     63692303 |     63692303 |     63692303 |     63692303 |    167599927 |    167599927 |    167599927 |    167599927 |    354847789 |    354847789 |    354847789 |    354847789 |
dl1.hits                                    185886 |       185886 |       185890 |       185890 |       380548 |       380548 |       380761 |       380761 |       780748 |       780748 |       781091 |       781091 |      1617064 |      1617064 |      1618032 |      1618032 |      3357727 |      3357727 |      3360201 |      3360201 |      7007147 |      7007147 |      7012083 |      7012083 |     14442178 |     14442178 |     14453537 |     14453537 |     30087460 |     30087460 |     30110325 |     30110325 |     61991946 |     61991946 |     62041531 |     62041531 |    163246499 |    163246499 |    163788747 |    163788747 |    345693090 |    345693090 |    347217334 |    347217334 |
dl1.misses                                    2350 |         2350 |         2346 |         2346 |         5707 |         5707 |         5494 |         5494 |        12721 |        12721 |        12378 |        12378 |        28326 |        28326 |        27358 |        27358 |        66695 |        66695 |        64221 |        64221 |       159930 |       159930 |       154994 |       154994 |       344753 |       344753 |       333394 |       333394 |       798239 |       798239 |       775374 |       775374 |      1700357 |      1700357 |      1650772 |      1650772 |      4353428 |      4353428 |      3811180 |      3811180 |      9154699 |      9154699 |      7630455 |      7630455 |
dl1.replacements                              2094 |         2094 |         2090 |         2090 |         5451 |         5451 |         5238 |         5238 |        12465 |        12465 |        12122 |        12122 |        28070 |        28070 |        27102 |        27102 |        66439 |        66439 |        63965 |        63965 |       159674 |       159674 |       154738 |       154738 |       344497 |       344497 |       333138 |       333138 |       797983 |       797983 |       775118 |       775118 |      1700101 |      1700101 |      1650516 |      1650516 |      4353172 |      4353172 |      3810924 |      3810924 |      9154443 |      9154443 |      7630199 |      7630199 |
dl1.writebacks                                1986 |         1986 |         1942 |         1942 |         4949 |         4949 |         4778 |         4778 |        11761 |        11761 |        11542 |        11542 |        26828 |        26828 |        26117 |        26117 |        62740 |        62740 |        60973 |        60973 |       144836 |       144836 |       141623 |       141623 |       321260 |       321260 |       313920 |       313920 |       721973 |       721973 |       707924 |       707924 |      1573769 |      1573769 |      1543534 |      1543534 |      3398280 |      3398280 |      3095508 |      3095508 |      7157424 |      7157424 |      6220334 |      6220334 |
dl1.invalidations                                0 |            0 |            0 |            0 |            0 |            0 |            0 |            0 |            0 |            0 |            0 |            0 |            0 |            0 |            0 |            0 |            0 |            0 |            0 |            0 |            0 |            0 |            0 |            0 |            0 |            0 |            0 |            0 |            0 |            0 |            0 |            0 |            0 |            0 |            0 |            0 |            0 |            0 |            0 |            0 |            0 |            0 |            0 |            0 |
dl1.miss_rate                               0.0125 |       0.0125 |       0.0125 |       0.0125 |       0.0148 |       0.0148 |       0.0142 |       0.0142 |       0.0160 |       0.0160 |       0.0156 |       0.0156 |       0.0172 |       0.0172 |       0.0166 |       0.0166 |       0.0195 |       0.0195 |       0.0188 |       0.0188 |       0.0223 |       0.0223 |       0.0216 |       0.0216 |       0.0233 |       0.0233 |       0.0225 |       0.0225 |       0.0258 |       0.0258 |       0.0251 |       0.0251 |       0.0267 |       0.0267 |       0.0259 |       0.0259 |       0.0260 |       0.0260 |       0.0227 |       0.0227 |       0.0258 |       0.0258 |       0.0215 |       0.0215 |
dl1.repl_rate                               0.0111 |       0.0111 |       0.0111 |       0.0111 |       0.0141 |       0.0141 |       0.0136 |       0.0136 |       0.0157 |       0.0157 |       0.0153 |       0.0153 |       0.0171 |       0.0171 |       0.0165 |       0.0165 |       0.0194 |       0.0194 |       0.0187 |       0.0187 |       0.0223 |       0.0223 |       0.0216 |       0.0216 |       0.0233 |       0.0233 |       0.0225 |       0.0225 |       0.0258 |       0.0258 |       0.0251 |       0.0251 |       0.0267 |       0.0267 |       0.0259 |       0.0259 |       0.0260 |       0.0260 |       0.0227 |       0.0227 |       0.0258 |       0.0258 |       0.0215 |       0.0215 |
dl1.wb_rate                                 0.0106 |       0.0106 |       0.0103 |       0.0103 |       0.0128 |       0.0128 |       0.0124 |       0.0124 |       0.0148 |       0.0148 |       0.0145 |       0.0145 |       0.0163 |       0.0163 |       0.0159 |       0.0159 |       0.0183 |       0.0183 |       0.0178 |       0.0178 |       0.0202 |       0.0202 |       0.0198 |       0.0198 |       0.0217 |       0.0217 |       0.0212 |       0.0212 |       0.0234 |       0.0234 |       0.0229 |       0.0229 |       0.0247 |       0.0247 |       0.0242 |       0.0242 |       0.0203 |       0.0203 |       0.0185 |       0.0185 |       0.0202 |       0.0202 |       0.0175 |       0.0175 |
dl1.inv_rate                                0.0000 |       0.0000 |       0.0000 |       0.0000 |       0.0000 |       0.0000 |       0.0000 |       0.0000 |       0.0000 |       0.0000 |       0.0000 |       0.0000 |       0.0000 |       0.0000 |       0.0000 |       0.0000 |       0.0000 |       0.0000 |       0.0000 |       0.0000 |       0.0000 |       0.0000 |       0.0000 |       0.0000 |       0.0000 |       0.0000 |       0.0000 |       0.0000 |       0.0000 |       0.0000 |       0.0000 |       0.0000 |       0.0000 |       0.0000 |       0.0000 |       0.0000 |       0.0000 |       0.0000 |       0.0000 |       0.0000 |       0.0000 |       0.0000 |       0.0000 |       0.0000 |
dl2.accesses                                  4850 |         4850 |         4718 |         4718 |        11171 |        11171 |        10703 |        10703 |        25020 |        25020 |        24370 |        24370 |        55686 |        55686 |        53919 |        53919 |       129971 |       129971 |       125642 |       125642 |       305298 |       305298 |       297061 |       297061 |       666549 |       666549 |       647762 |       647762 |      1520735 |      1520735 |      1483733 |      1483733 |      3274664 |      3274664 |      3194756 |      3194756 |      7752501 |      7752501 |      6907335 |      6907335 |     16312926 |     16312926 |     13851444 |     13851444 |
dl2.hits                                      3408 |         3408 |         3334 |         3334 |         9218 |         9218 |         8806 |         8806 |        22042 |        22042 |        21447 |        21447 |        50666 |        50666 |        48954 |        48954 |       120850 |       120850 |       116576 |       116576 |       287989 |       287989 |       279807 |       279807 |       632852 |       632852 |       614120 |       614120 |      1454283 |      1453549 |      1417336 |      1361563 |      3141922 |      2930015 |      2946233 |      2795490 |      6249621 |      6189188 |      5400149 |      5337774 |     13229030 |     13096565 |     10767065 |     10569127 |
dl2.misses                                    1442 |         1442 |         1384 |         1384 |         1953 |         1953 |         1897 |         1897 |         2978 |         2978 |         2923 |         2923 |         5020 |         5020 |         4965 |         4965 |         9121 |         9121 |         9066 |         9066 |        17309 |        17309 |        17254 |        17254 |        33697 |        33697 |        33642 |        33642 |        66452 |        67186 |        66397 |       122170 |       132742 |       344649 |       248523 |       399266 |      1502880 |      1563313 |      1507186 |      1569561 |      3083896 |      3216361 |      3084379 |      3282317 |
dl2.replacements                               342 |          342 |            0 |            0 |          341 |          341 |            0 |            0 |          344 |          344 |            0 |            0 |          338 |          338 |            0 |            0 |          343 |          343 |            0 |            0 |          339 |          339 |            0 |            0 |          343 |          343 |            0 |            0 |          330 |         1650 |            0 |        56634 |         1670 |       279113 |       117451 |       333730 |      1371808 |      1497777 |      1376114 |      1504025 |      2952824 |      3150825 |      2953307 |      3216781 |
dl2.writebacks                                 176 |          176 |            0 |            0 |          175 |          175 |            0 |            0 |          181 |          181 |            0 |            0 |          176 |          176 |            0 |            0 |          180 |          180 |            0 |            0 |          176 |          176 |            0 |            0 |          180 |          180 |            0 |            0 |          167 |         1348 |            0 |        56391 |         1356 |       275112 |       117208 |       326084 |       849575 |       968069 |       863874 |       981370 |      1901388 |      2089438 |      1911883 |      2164596 |
dl2.invalidations                                0 |            0 |            0 |            0 |            0 |            0 |            0 |            0 |            0 |            0 |            0 |            0 |            0 |            0 |            0 |            0 |            0 |            0 |            0 |            0 |            0 |            0 |            0 |            0 |            0 |            0 |            0 |            0 |            0 |            0 |            0 |            0 |            0 |            0 |            0 |            0 |            0 |            0 |            0 |            0 |            0 |            0 |            0 |            0 |
dl2.miss_rate                               0.2973 |       0.2973 |       0.2933 |       0.2933 |       0.1748 |       0.1748 |       0.1772 |       0.1772 |       0.1190 |       0.1190 |       0.1199 |       0.1199 |       0.0901 |       0.0901 |       0.0921 |       0.0921 |       0.0702 |       0.0702 |       0.0722 |       0.0722 |       0.0567 |       0.0567 |       0.0581 |       0.0581 |       0.0506 |       0.0506 |       0.0519 |       0.0519 |       0.0437 |       0.0442 |       0.0447 |       0.0823 |       0.0405 |       0.1052 |       0.0778 |       0.1250 |       0.1939 |       0.2017 |       0.2182 |       0.2272 |       0.1890 |       0.1972 |       0.2227 |       0.2370 |
dl2.repl_rate                               0.0705 |       0.0705 |       0.0000 |       0.0000 |       0.0305 |       0.0305 |       0.0000 |       0.0000 |       0.0137 |       0.0137 |       0.0000 |       0.0000 |       0.0061 |       0.0061 |       0.0000 |       0.0000 |       0.0026 |       0.0026 |       0.0000 |       0.0000 |       0.0011 |       0.0011 |       0.0000 |       0.0000 |       0.0005 |       0.0005 |       0.0000 |       0.0000 |       0.0002 |       0.0011 |       0.0000 |       0.0382 |       0.0005 |       0.0852 |       0.0368 |       0.1045 |       0.1770 |       0.1932 |       0.1992 |       0.2177 |       0.1810 |       0.1931 |       0.2132 |       0.2322 |
dl2.wb_rate                                 0.0363 |       0.0363 |       0.0000 |       0.0000 |       0.0157 |       0.0157 |       0.0000 |       0.0000 |       0.0072 |       0.0072 |       0.0000 |       0.0000 |       0.0032 |       0.0032 |       0.0000 |       0.0000 |       0.0014 |       0.0014 |       0.0000 |       0.0000 |       0.0006 |       0.0006 |       0.0000 |       0.0000 |       0.0003 |       0.0003 |       0.0000 |       0.0000 |       0.0001 |       0.0009 |       0.0000 |       0.0380 |       0.0004 |       0.0840 |       0.0367 |       0.1021 |       0.1096 |       0.1249 |       0.1251 |       0.1421 |       0.1166 |       0.1281 |       0.1380 |       0.1563 |
dl2.inv_rate                                0.0000 |       0.0000 |       0.0000 |       0.0000 |       0.0000 |       0.0000 |       0.0000 |       0.0000 |       0.0000 |       0.0000 |       0.0000 |       0.0000 |       0.0000 |       0.0000 |       0.0000 |       0.0000 |       0.0000 |       0.0000 |       0.0000 |       0.0000 |       0.0000 |       0.0000 |       0.0000 |       0.0000 |       0.0000 |       0.0000 |       0.0000 |       0.0000 |       0.0000 |       0.0000 |       0.0000 |       0.0000 |       0.0000 |       0.0000 |       0.0000 |       0.0000 |       0.0000 |       0.0000 |       0.0000 |       0.0000 |       0.0000 |       0.0000 |       0.0000 |       0.0000 |
itlb.accesses                               609568 |       609568 |       609568 |       609568 |      1285079 |      1285079 |      1285079 |      1285079 |      2676876 |      2676876 |      2676876 |      2676876 |      5607140 |      5607140 |      5607140 |      5607140 |     11808513 |     11808513 |     11808513 |     11808513 |     25116949 |     25116949 |     25116949 |     25116949 |     51919202 |     51919202 |     51919202 |     51919202 |    110139278 |    110139278 |    110139278 |    110139278 |    227785029 |    227785029 |    227785029 |    227785029 |    652633668 |    652633668 |    652633668 |    652633668 |   1422456183 |   1422456183 |   1422456183 |   1422456183 |
itlb.hits                                   609560 |       609560 |       609560 |       609560 |      1285071 |      1285071 |      1285071 |      1285071 |      2676868 |      2676868 |      2676868 |      2676868 |      5607132 |      5607132 |      5607132 |      5607132 |     11808505 |     11808505 |     11808505 |     11808505 |     25116941 |     25116941 |     25116941 |     25116941 |     51919194 |     51919194 |     51919194 |     51919194 |    110139270 |    110139270 |    110139270 |    110139270 |    227785021 |    227785021 |    227785021 |    227785021 |    652633660 |    652633660 |    652633660 |    652633660 |   1422456175 |   1422456175 |   1422456175 |   1422456175 |
itlb.misses                                      8 |            8 |            8 |            8 |            8 |            8 |            8 |            8 |            8 |            8 |            8 |            8 |            8 |            8 |            8 |            8 |            8 |            8 |            8 |            8 |            8 |            8 |            8 |            8 |            8 |            8 |            8 |            8 |            8 |            8 |            8 |            8 |            8 |            8 |            8 |            8 |            8 |            8 |            8 |            8 |            8 |            8 |            8 |            8 |
itlb.replacements                                0 |            0 |            0 |            0 |            0 |            0 |            0 |            0 |            0 |            0 |            0 |            0 |            0 |            0 |            0 |            0 |            0 |            0 |            0 |            0 |            0 |            0 |            0 |            0 |            0 |            0 |            0 |            0 |            0 |            0 |            0 |            0 |            0 |            0 |            0 |            0 |            0 |            0 |            0 |            0 |            0 |            0 |            0 |            0 |
itlb.writebacks                                  0 |            0 |            0 |            0 |            0 |            0 |            0 |            0 |            0 |            0 |            0 |            0 |            0 |            0 |            0 |            0 |            0 |            0 |            0 |            0 |            0 |            0 |            0 |            0 |            0 |            0 |            0 |            0 |            0 |            0 |            0 |            0 |            0 |            0 |            0 |            0 |            0 |            0 |            0 |            0 |            0 |            0 |            0 |            0 |
itlb.invalidations                               0 |            0 |            0 |            0 |            0 |            0 |            0 |            0 |            0 |            0 |            0 |            0 |            0 |            0 |            0 |            0 |            0 |            0 |            0 |            0 |            0 |            0 |            0 |            0 |            0 |            0 |            0 |            0 |            0 |            0 |            0 |            0 |            0 |            0 |            0 |            0 |            0 |            0 |            0 |            0 |            0 |            0 |            0 |            0 |
itlb.miss_rate                              0.0000 |       0.0000 |       0.0000 |       0.0000 |       0.0000 |       0.0000 |       0.0000 |       0.0000 |       0.0000 |       0.0000 |       0.0000 |       0.0000 |       0.0000 |       0.0000 |       0.0000 |       0.0000 |       0.0000 |       0.0000 |       0.0000 |       0.0000 |       0.0000 |       0.0000 |       0.0000 |       0.0000 |       0.0000 |       0.0000 |       0.0000 |       0.0000 |       0.0000 |       0.0000 |       0.0000 |       0.0000 |       0.0000 |       0.0000 |       0.0000 |       0.0000 |       0.0000 |       0.0000 |       0.0000 |       0.0000 |       0.0000 |       0.0000 |       0.0000 |       0.0000 |
itlb.repl_rate                              0.0000 |       0.0000 |       0.0000 |       0.0000 |       0.0000 |       0.0000 |       0.0000 |       0.0000 |       0.0000 |       0.0000 |       0.0000 |       0.0000 |       0.0000 |       0.0000 |       0.0000 |       0.0000 |       0.0000 |       0.0000 |       0.0000 |       0.0000 |       0.0000 |       0.0000 |       0.0000 |       0.0000 |       0.0000 |       0.0000 |       0.0000 |       0.0000 |       0.0000 |       0.0000 |       0.0000 |       0.0000 |       0.0000 |       0.0000 |       0.0000 |       0.0000 |       0.0000 |       0.0000 |       0.0000 |       0.0000 |       0.0000 |       0.0000 |       0.0000 |       0.0000 |
itlb.wb_rate                                0.0000 |       0.0000 |       0.0000 |       0.0000 |       0.0000 |       0.0000 |       0.0000 |       0.0000 |       0.0000 |       0.0000 |       0.0000 |       0.0000 |       0.0000 |       0.0000 |       0.0000 |       0.0000 |       0.0000 |       0.0000 |       0.0000 |       0.0000 |       0.0000 |       0.0000 |       0.0000 |       0.0000 |       0.0000 |       0.0000 |       0.0000 |       0.0000 |       0.0000 |       0.0000 |       0.0000 |       0.0000 |       0.0000 |       0.0000 |       0.0000 |       0.0000 |       0.0000 |       0.0000 |       0.0000 |       0.0000 |       0.0000 |       0.0000 |       0.0000 |       0.0000 |
itlb.inv_rate                               0.0000 |       0.0000 |       0.0000 |       0.0000 |       0.0000 |       0.0000 |       0.0000 |       0.0000 |       0.0000 |       0.0000 |       0.0000 |       0.0000 |       0.0000 |       0.0000 |       0.0000 |       0.0000 |       0.0000 |       0.0000 |       0.0000 |       0.0000 |       0.0000 |       0.0000 |       0.0000 |       0.0000 |       0.0000 |       0.0000 |       0.0000 |       0.0000 |       0.0000 |       0.0000 |       0.0000 |       0.0000 |       0.0000 |       0.0000 |       0.0000 |       0.0000 |       0.0000 |       0.0000 |       0.0000 |       0.0000 |       0.0000 |       0.0000 |       0.0000 |       0.0000 |
dtlb.accesses                               188236 |       188236 |       188236 |       188236 |       386255 |       386255 |       386255 |       386255 |       793469 |       793469 |       793469 |       793469 |      1645390 |      1645390 |      1645390 |      1645390 |      3424422 |      3424422 |      3424422 |      3424422 |      7167077 |      7167077 |      7167077 |      7167077 |     14786931 |     14786931 |     14786931 |     14786931 |     30885699 |     30885699 |     30885699 |     30885699 |     63692303 |     63692303 |     63692303 |     63692303 |    167599927 |    167599927 |    167599927 |    167599927 |    354847789 |    354847789 |    354847789 |    354847789 |
dtlb.hits                                   188225 |       188225 |       188225 |       188225 |       386240 |       386240 |       386240 |       386240 |       793446 |       793446 |       793446 |       793446 |      1645351 |      1645351 |      1645351 |      1645351 |      3424351 |      3424351 |      3424351 |      3424351 |      7166917 |      7166917 |      7166917 |      7166917 |     14786178 |     14786178 |     14786178 |     14786178 |     30883424 |     30883424 |     30883424 |     30883424 |     63686732 |     63686732 |     63686732 |     63686732 |    167581943 |    167581943 |    167581943 |    167581943 |    354812248 |    354812248 |    354812248 |    354812248 |
dtlb.misses                                     11 |           11 |           11 |           11 |           15 |           15 |           15 |           15 |           23 |           23 |           23 |           23 |           39 |           39 |           39 |           39 |           71 |           71 |           71 |           71 |          160 |          160 |          160 |          160 |          753 |          753 |          753 |          753 |         2275 |         2275 |         2275 |         2275 |         5571 |         5571 |         5571 |         5571 |        17984 |        17984 |        17984 |        17984 |        35541 |        35541 |        35541 |        35541 |
dtlb.replacements                                0 |            0 |            0 |            0 |            0 |            0 |            0 |            0 |            0 |            0 |            0 |            0 |            0 |            0 |            0 |            0 |            0 |            0 |            0 |            0 |           32 |           32 |           32 |           32 |          625 |          625 |          625 |          625 |         2147 |         2147 |         2147 |         2147 |         5443 |         5443 |         5443 |         5443 |        17856 |        17856 |        17856 |        17856 |        35413 |        35413 |        35413 |        35413 |
dtlb.writebacks                                  0 |            0 |            0 |            0 |            0 |            0 |            0 |            0 |            0 |            0 |            0 |            0 |            0 |            0 |            0 |            0 |            0 |            0 |            0 |            0 |           31 |           31 |           31 |           31 |          624 |          624 |          624 |          624 |         2146 |         2146 |         2146 |         2146 |         5442 |         5442 |         5442 |         5442 |        13787 |        13787 |        13787 |        13787 |        27208 |        27208 |        27208 |        27208 |
dtlb.invalidations                               0 |            0 |            0 |            0 |            0 |            0 |            0 |            0 |            0 |            0 |            0 |            0 |            0 |            0 |            0 |            0 |            0 |            0 |            0 |            0 |            0 |            0 |            0 |            0 |            0 |            0 |            0 |            0 |            0 |            0 |            0 |            0 |            0 |            0 |            0 |            0 |            0 |            0 |            0 |            0 |            0 |            0 |            0 |            0 |
dtlb.miss_rate                              0.0001 |       0.0001 |       0.0001 |       0.0001 |       0.0000 |       0.0000 |       0.0000 |       0.0000 |       0.0000 |       0.0000 |       0.0000 |       0.0000 |       0.0000 |       0.0000 |       0.0000 |       0.0000 |       0.0000 |       0.0000 |       0.0000 |       0.0000 |       0.0000 |       0.0000 |       0.0000 |       0.0000 |       0.0001 |       0.0001 |       0.0001 |       0.0001 |       0.0001 |       0.0001 |       0.0001 |       0.0001 |       0.0001 |       0.0001 |       0.0001 |       0.0001 |       0.0001 |       0.0001 |       0.0001 |       0.0001 |       0.0001 |       0.0001 |       0.0001 |       0.0001 |
dtlb.repl_rate                              0.0000 |       0.0000 |       0.0000 |       0.0000 |       0.0000 |       0.0000 |       0.0000 |       0.0000 |       0.0000 |       0.0000 |       0.0000 |       0.0000 |       0.0000 |       0.0000 |       0.0000 |       0.0000 |       0.0000 |       0.0000 |       0.0000 |       0.0000 |       0.0000 |       0.0000 |       0.0000 |       0.0000 |       0.0000 |       0.0000 |       0.0000 |       0.0000 |       0.0001 |       0.0001 |       0.0001 |       0.0001 |       0.0001 |       0.0001 |       0.0001 |       0.0001 |       0.0001 |       0.0001 |       0.0001 |       0.0001 |       0.0001 |       0.0001 |       0.0001 |       0.0001 |
dtlb.wb_rate                                0.0000 |       0.0000 |       0.0000 |       0.0000 |       0.0000 |       0.0000 |       0.0000 |       0.0000 |       0.0000 |       0.0000 |       0.0000 |       0.0000 |       0.0000 |       0.0000 |       0.0000 |       0.0000 |       0.0000 |       0.0000 |       0.0000 |       0.0000 |       0.0000 |       0.0000 |       0.0000 |       0.0000 |       0.0000 |       0.0000 |       0.0000 |       0.0000 |       0.0001 |       0.0001 |       0.0001 |       0.0001 |       0.0001 |       0.0001 |       0.0001 |       0.0001 |       0.0001 |       0.0001 |       0.0001 |       0.0001 |       0.0001 |       0.0001 |       0.0001 |       0.0001 |
dtlb.inv_rate                               0.0000 |       0.0000 |       0.0000 |       0.0000 |       0.0000 |       0.0000 |       0.0000 |       0.0000 |       0.0000 |       0.0000 |       0.0000 |       0.0000 |       0.0000 |       0.0000 |       0.0000 |       0.0000 |       0.0000 |       0.0000 |       0.0000 |       0.0000 |       0.0000 |       0.0000 |       0.0000 |       0.0000 |       0.0000 |       0.0000 |       0.0000 |       0.0000 |       0.0000 |       0.0000 |       0.0000 |       0.0000 |       0.0000 |       0.0000 |       0.0000 |       0.0000 |       0.0000 |       0.0000 |       0.0000 |       0.0000 |       0.0000 |       0.0000 |       0.0000 |       0.0000 |
ld_text_base                            0x00400000 |   0x00400000 |   0x00400000 |   0x00400000 |   0x00400000 |   0x00400000 |   0x00400000 |   0x00400000 |   0x00400000 |   0x00400000 |   0x00400000 |   0x00400000 |   0x00400000 |   0x00400000 |   0x00400000 |   0x00400000 |   0x00400000 |   0x00400000 |   0x00400000 |   0x00400000 |   0x00400000 |   0x00400000 |   0x00400000 |   0x00400000 |   0x00400000 |   0x00400000 |   0x00400000 |   0x00400000 |   0x00400000 |   0x00400000 |   0x00400000 |   0x00400000 |   0x00400000 |   0x00400000 |   0x00400000 |   0x00400000 |   0x00400000 |   0x00400000 |   0x00400000 |   0x00400000 |   0x00400000 |   0x00400000 |   0x00400000 |   0x00400000 |
ld_text_size                                 32240 |        32240 |        32240 |        32240 |        32272 |        32272 |        32272 |        32272 |        32288 |        32288 |        32288 |        32288 |        32320 |        32320 |        32320 |        32320 |        32320 |        32320 |        32320 |        32320 |        32320 |        32320 |        32320 |        32320 |        32320 |        32320 |        32320 |        32320 |        32320 |        32320 |        32320 |        32320 |        32320 |        32320 |        32320 |        32320 |        32320 |        32320 |        32320 |        32320 |        32320 |        32320 |        32320 |        32320 |
ld_data_base                            0x10000000 |   0x10000000 |   0x10000000 |   0x10000000 |   0x10000000 |   0x10000000 |   0x10000000 |   0x10000000 |   0x10000000 |   0x10000000 |   0x10000000 |   0x10000000 |   0x10000000 |   0x10000000 |   0x10000000 |   0x10000000 |   0x10000000 |   0x10000000 |   0x10000000 |   0x10000000 |   0x10000000 |   0x10000000 |   0x10000000 |   0x10000000 |   0x10000000 |   0x10000000 |   0x10000000 |   0x10000000 |   0x10000000 |   0x10000000 |   0x10000000 |   0x10000000 |   0x10000000 |   0x10000000 |   0x10000000 |   0x10000000 |   0x10000000 |   0x10000000 |   0x10000000 |   0x10000000 |   0x10000000 |   0x10000000 |   0x10000000 |   0x10000000 |
ld_data_size                                  4096 |         4096 |         4096 |         4096 |         4096 |         4096 |         4096 |         4096 |         4096 |         4096 |         4096 |         4096 |         4096 |         4096 |         4096 |         4096 |         4096 |         4096 |         4096 |         4096 |         4096 |         4096 |         4096 |         4096 |         4096 |         4096 |         4096 |         4096 |         4096 |         4096 |         4096 |         4096 |         4096 |         4096 |         4096 |         4096 |         4096 |         4096 |         4096 |         4096 |         4096 |         4096 |         4096 |         4096 |
ld_stack_base                           0x7fffc000 |   0x7fffc000 |   0x7fffc000 |   0x7fffc000 |   0x7fffc000 |   0x7fffc000 |   0x7fffc000 |   0x7fffc000 |   0x7fffc000 |   0x7fffc000 |   0x7fffc000 |   0x7fffc000 |   0x7fffc000 |   0x7fffc000 |   0x7fffc000 |   0x7fffc000 |   0x7fffc000 |   0x7fffc000 |   0x7fffc000 |   0x7fffc000 |   0x7fffc000 |   0x7fffc000 |   0x7fffc000 |   0x7fffc000 |   0x7fffc000 |   0x7fffc000 |   0x7fffc000 |   0x7fffc000 |   0x7fffc000 |   0x7fffc000 |   0x7fffc000 |   0x7fffc000 |   0x7fffc000 |   0x7fffc000 |   0x7fffc000 |   0x7fffc000 |   0x7fffc000 |   0x7fffc000 |   0x7fffc000 |   0x7fffc000 |   0x7fffc000 |   0x7fffc000 |   0x7fffc000 |   0x7fffc000 |
ld_stack_size                                16384 |        16384 |        16384 |        16384 |        16384 |        16384 |        16384 |        16384 |        16384 |        16384 |        16384 |        16384 |        16384 |        16384 |        16384 |        16384 |        16384 |        16384 |        16384 |        16384 |        16384 |        16384 |        16384 |        16384 |        16384 |        16384 |        16384 |        16384 |        16384 |        16384 |        16384 |        16384 |        16384 |        16384 |        16384 |        16384 |        16384 |        16384 |        16384 |        16384 |        16384 |        16384 |        16384 |        16384 |
ld_prog_entry                           0x00400140 |   0x00400140 |   0x00400140 |   0x00400140 |   0x00400140 |   0x00400140 |   0x00400140 |   0x00400140 |   0x00400140 |   0x00400140 |   0x00400140 |   0x00400140 |   0x00400140 |   0x00400140 |   0x00400140 |   0x00400140 |   0x00400140 |   0x00400140 |   0x00400140 |   0x00400140 |   0x00400140 |   0x00400140 |   0x00400140 |   0x00400140 |   0x00400140 |   0x00400140 |   0x00400140 |   0x00400140 |   0x00400140 |   0x00400140 |   0x00400140 |   0x00400140 |   0x00400140 |   0x00400140 |   0x00400140 |   0x00400140 |   0x00400140 |   0x00400140 |   0x00400140 |   0x00400140 |   0x00400140 |   0x00400140 |   0x00400140 |   0x00400140 |
ld_environ_base                         0x7fff8000 |   0x7fff8000 |   0x7fff8000 |   0x7fff8000 |   0x7fff8000 |   0x7fff8000 |   0x7fff8000 |   0x7fff8000 |   0x7fff8000 |   0x7fff8000 |   0x7fff8000 |   0x7fff8000 |   0x7fff8000 |   0x7fff8000 |   0x7fff8000 |   0x7fff8000 |   0x7fff8000 |   0x7fff8000 |   0x7fff8000 |   0x7fff8000 |   0x7fff8000 |   0x7fff8000 |   0x7fff8000 |   0x7fff8000 |   0x7fff8000 |   0x7fff8000 |   0x7fff8000 |   0x7fff8000 |   0x7fff8000 |   0x7fff8000 |   0x7fff8000 |   0x7fff8000 |   0x7fff8000 |   0x7fff8000 |   0x7fff8000 |   0x7fff8000 |   0x7fff8000 |   0x7fff8000 |   0x7fff8000 |   0x7fff8000 |   0x7fff8000 |   0x7fff8000 |   0x7fff8000 |   0x7fff8000 |
ld_target_big_endian                             0 |            0 |            0 |            0 |            0 |            0 |            0 |            0 |            0 |            0 |            0 |            0 |            0 |            0 |            0 |            0 |            0 |            0 |            0 |            0 |            0 |            0 |            0 |            0 |            0 |            0 |            0 |            0 |            0 |            0 |            0 |            0 |            0 |            0 |            0 |            0 |            0 |            0 |            0 |            0 |            0 |            0 |            0 |            0 |
mem.page_count                                  19 |           19 |           19 |           19 |           23 |           23 |           23 |           23 |           31 |           31 |           31 |           31 |           47 |           47 |           47 |           47 |           79 |           79 |           79 |           79 |          143 |          143 |          143 |          143 |          271 |          271 |          271 |          271 |          527 |          527 |          527 |          527 |         1039 |         1039 |         1039 |         1039 |         4134 |         4134 |         4134 |         4134 |         8253 |         8253 |         8253 |         8253 |
mem.page_mem                                   76k |          76k |          76k |          76k |          92k |          92k |          92k |          92k |         124k |         124k |         124k |         124k |         188k |         188k |         188k |         188k |         316k |         316k |         316k |         316k |         572k |         572k |         572k |         572k |        1084k |        1084k |        1084k |        1084k |        2108k |        2108k |        2108k |        2108k |        4156k |        4156k |        4156k |        4156k |       16536k |       16536k |       16536k |       16536k |       33012k |       33012k |       33012k |       33012k |
mem.ptab_misses                                 19 |           19 |           19 |           19 |           23 |           23 |           23 |           23 |           31 |           31 |           31 |           31 |           47 |           47 |           47 |           47 |           79 |           79 |           79 |           79 |          143 |          143 |          143 |          143 |          271 |          271 |          271 |          271 |          527 |          527 |          527 |          527 |         1039 |         1039 |         1039 |         1039 |        28596 |        28596 |        28596 |        28596 |        32715 |        32715 |        32715 |        32715 |
mem.ptab_accesses                          3013478 |      3013478 |      3013478 |      3013478 |      6111752 |      6111752 |      6111752 |      6111752 |     12493464 |     12493464 |     12493464 |     12493464 |     25918554 |     25918554 |     25918554 |     25918554 |     54282110 |     54282110 |     54282110 |     54282110 |    115001164 |    115001164 |    115001164 |    115001164 |    237449884 |    237449884 |    237449884 |    237449884 |    502527724 |    502527724 |    502527724 |    502527724 |   1038723936 |   1038723936 |   1038723936 |   1038723936 |   2945933740 |   2945933740 |   2945933740 |   2945933740 |   6399719524 |   6399719524 |   6399719524 |   6399719524 |
mem.ptab_miss_rate                          0.0000 |       0.0000 |       0.0000 |       0.0000 |       0.0000 |       0.0000 |       0.0000 |       0.0000 |       0.0000 |       0.0000 |       0.0000 |       0.0000 |       0.0000 |       0.0000 |       0.0000 |       0.0000 |       0.0000 |       0.0000 |       0.0000 |       0.0000 |       0.0000 |       0.0000 |       0.0000 |       0.0000 |       0.0000 |       0.0000 |       0.0000 |       0.0000 |       0.0000 |       0.0000 |       0.0000 |       0.0000 |       0.0000 |       0.0000 |       0.0000 |       0.0000 |       0.0000 |       0.0000 |       0.0000 |       0.0000 |       0.0000 |       0.0000 |       0.0000 |       0.0000 |
-------------------------------------------------------------------------------------------------
sim-bpred                                     4096 |         4096 |         4096 |         4096 |         4096 |         4096 |         4096 |         8192 |         8192 |         8192 |         8192 |         8192 |         8192 |         8192 |        16384 |        16384 |        16384 |        16384 |        16384 |        16384 |        16384 |        32768 |        32768 |        32768 |        32768 |        32768 |        32768 |        32768 |        65536 |        65536 |        65536 |        65536 |        65536 |        65536 |        65536 |       131072 |       131072 |       131072 |       131072 |       131072 |       131072 |       131072 |       262144 |       262144 |       262144 |       262144 |       262144 |       262144 |       262144 |       524288 |       524288 |       524288 |       524288 |       524288 |       524288 |       524288 |      1048576 |      1048576 |      1048576 |      1048576 |      1048576 |      1048576 |      1048576 |      2097152 |      2097152 |      2097152 |      2097152 |      2097152 |      2097152 |      2097152 |      4194304 |      4194304 |      4194304 |      4194304 |      4194304 |      4194304 |      4194304 |
-bpred bimod -bpred:bimod 512
-bpred bimod -bpred:bimod 1024
-bpred bimod -bpred:bimod 2048
-bpred 2lev -bpred:2lev 1 512 10 1
-bpred 2lev -bpred:2lev 1 1024 10 1
-bpred 2lev -bpred:2lev 1 2048 10 1
-bpred 2lev -bpred:2lev 1 4096 10 1
-------------------------------------------------------------------------------------------------
sim_num_insn                                609568 |       609568 |       609568 |       609568 |       609568 |       609568 |       609568 |      1285079 |      1285079 |      1285079 |      1285079 |      1285079 |      1285079 |      1285079 |      2676876 |      2676876 |      2676876 |      2676876 |      2676876 |      2676876 |      2676876 |      5607140 |      5607140 |      5607140 |      5607140 |      5607140 |      5607140 |      5607140 |     11808513 |     11808513 |     11808513 |     11808513 |     11808513 |     11808513 |     11808513 |     25116949 |     25116949 |     25116949 |     25116949 |     25116949 |     25116949 |     25116949 |     51919202 |     51919202 |     51919202 |     51919202 |     51919202 |     51919202 |     51919202 |    110139278 |    110139278 |    110139278 |    110139278 |    110139278 |    110139278 |    110139278 |    227785029 |    227785029 |    227785029 |    227785029 |    227785029 |    227785029 |    227785029 |    652633668 |    652633668 |    652633668 |    652633668 |    652633668 |    652633668 |    652633668 |   1422456183 |   1422456183 |   1422456183 |   1422456183 |   1422456183 |   1422456183 |   1422456183 |
sim_num_refs                                188166 |       188166 |       188166 |       188166 |       188166 |       188166 |       188166 |       386185 |       386185 |       386185 |       386185 |       386185 |       386185 |       386185 |       793399 |       793399 |       793399 |       793399 |       793399 |       793399 |       793399 |      1645320 |      1645320 |      1645320 |      1645320 |      1645320 |      1645320 |      1645320 |      3424352 |      3424352 |      3424352 |      3424352 |      3424352 |      3424352 |      3424352 |      7167007 |      7167007 |      7167007 |      7167007 |      7167007 |      7167007 |      7167007 |     14786861 |     14786861 |     14786861 |     14786861 |     14786861 |     14786861 |     14786861 |     30885629 |     30885629 |     30885629 |     30885629 |     30885629 |     30885629 |     30885629 |     63692233 |     63692233 |     63692233 |     63692233 |     63692233 |     63692233 |     63692233 |    167599856 |    167599856 |    167599856 |    167599856 |    167599856 |    167599856 |    167599856 |    354847718 |    354847718 |    354847718 |    354847718 |    354847718 |    354847718 |    354847718 |
sim_elapsed_time                                 1 |            1 |            1 |            1 |            1 |            1 |            1 |            1 |            1 |            1 |            1 |            1 |            1 |            1 |            1 |            1 |            1 |            1 |            1 |            1 |            1 |            1 |            1 |            1 |            1 |            1 |            1 |            1 |            1 |            2 |            1 |            2 |            1 |            1 |            2 |            5 |            6 |            6 |            6 |            6 |            6 |            6 |           12 |           13 |           13 |           12 |           13 |           12 |           13 |           26 |           27 |           26 |           27 |           27 |           27 |           27 |           55 |           55 |           56 |           55 |           56 |           56 |           57 |          165 |          166 |          165 |          165 |          164 |          163 |          165 |          353 |          347 |          358 |          370 |          368 |          361 |          193 |
sim_inst_rate                          609568.0000 |  609568.0000 |  609568.0000 |  609568.0000 |  609568.0000 |  609568.0000 |  609568.0000 | 1285079.0000 | 1285079.0000 | 1285079.0000 | 1285079.0000 | 1285079.0000 | 1285079.0000 | 1285079.0000 | 2676876.0000 | 2676876.0000 | 2676876.0000 | 2676876.0000 | 2676876.0000 | 2676876.0000 | 2676876.0000 | 5607140.0000 | 5607140.0000 | 5607140.0000 | 5607140.0000 | 5607140.0000 | 5607140.0000 | 5607140.0000 |11808513.0000 | 5904256.5000 |11808513.0000 | 5904256.5000 |11808513.0000 |11808513.0000 | 5904256.5000 | 5023389.8000 | 4186158.1667 | 4186158.1667 | 4186158.1667 | 4186158.1667 | 4186158.1667 | 4186158.1667 | 4326600.1667 | 3993784.7692 | 3993784.7692 | 4326600.1667 | 3993784.7692 | 4326600.1667 | 3993784.7692 | 4236126.0769 | 4079232.5185 | 4236126.0769 | 4079232.5185 | 4079232.5185 | 4079232.5185 | 4079232.5185 | 4141545.9818 | 4141545.9818 | 4067589.8036 | 4141545.9818 | 4067589.8036 | 4067589.8036 | 3996228.5789 | 3955355.5636 | 3931528.1205 | 3955355.5636 | 3955355.5636 | 3979473.5854 | 4003887.5337 | 3955355.5636 | 4029620.9150 | 4099297.3573 | 3973341.2933 | 3844476.1703 | 3865370.0625 | 3940321.8366 | 7370239.2902 |
sim_num_branches                            108465 |       108465 |       108465 |       108465 |       108465 |       108465 |       108465 |       228723 |       228723 |       228723 |       228723 |       228723 |       228723 |       228723 |       477542 |       477542 |       477542 |       477542 |       477542 |       477542 |       477542 |      1000747 |      1000747 |      1000747 |      1000747 |      1000747 |      1000747 |      1000747 |      2108086 |      2108086 |      2108086 |      2108086 |      2108086 |      2108086 |      2108086 |      4483944 |      4483944 |      4483944 |      4483944 |      4483944 |      4483944 |      4483944 |      9289664 |      9289664 |      9289664 |      9289664 |      9289664 |      9289664 |      9289664 |     19663273 |     19663273 |     19663273 |     19663273 |     19663273 |     19663273 |     19663273 |     40721476 |     40721476 |     40721476 |     40721476 |     40721476 |     40721476 |     40721476 |    117025962 |    117025962 |    117025962 |    117025962 |    117025962 |    117025962 |    117025962 |    263316610 |    263316610 |    263316610 |    263316610 |    263316610 |    263316610 |    263316610 |
sim_IPB                                     5.6200 |       5.6200 |       5.6200 |       5.6200 |       5.6200 |       5.6200 |       5.6200 |       5.6185 |       5.6185 |       5.6185 |       5.6185 |       5.6185 |       5.6185 |       5.6185 |       5.6055 |       5.6055 |       5.6055 |       5.6055 |       5.6055 |       5.6055 |       5.6055 |       5.6030 |       5.6030 |       5.6030 |       5.6030 |       5.6030 |       5.6030 |       5.6030 |       5.6015 |       5.6015 |       5.6015 |       5.6015 |       5.6015 |       5.6015 |       5.6015 |       5.6015 |       5.6015 |       5.6015 |       5.6015 |       5.6015 |       5.6015 |       5.6015 |       5.5889 |       5.5889 |       5.5889 |       5.5889 |       5.5889 |       5.5889 |       5.5889 |       5.6013 |       5.6013 |       5.6013 |       5.6013 |       5.6013 |       5.6013 |       5.6013 |       5.5937 |       5.5937 |       5.5937 |       5.5937 |       5.5937 |       5.5937 |       5.5937 |       5.5768 |       5.5768 |       5.5768 |       5.5768 |       5.5768 |       5.5768 |       5.5768 |       5.4021 |       5.4021 |       5.4021 |       5.4021 |       5.4021 |       5.4021 |       5.4021 |
bpred_bimod.lookups                         108465 |       108465 |       108465 |xxxxxxxxxxxxx |xxxxxxxxxxxxx |xxxxxxxxxxxxx |xxxxxxxxxxxxx |       228723 |       228723 |       228723 |xxxxxxxxxxxxx |xxxxxxxxxxxxx |xxxxxxxxxxxxx |xxxxxxxxxxxxx |       477542 |       477542 |       477542 |xxxxxxxxxxxxx |xxxxxxxxxxxxx |xxxxxxxxxxxxx |xxxxxxxxxxxxx |      1000747 |      1000747 |      1000747 |xxxxxxxxxxxxx |xxxxxxxxxxxxx |xxxxxxxxxxxxx |xxxxxxxxxxxxx |      2108086 |      2108086 |      2108086 |xxxxxxxxxxxxx |xxxxxxxxxxxxx |xxxxxxxxxxxxx |xxxxxxxxxxxxx |      4483944 |      4483944 |      4483944 |xxxxxxxxxxxxx |xxxxxxxxxxxxx |xxxxxxxxxxxxx |xxxxxxxxxxxxx |      9289664 |      9289664 |      9289664 |xxxxxxxxxxxxx |xxxxxxxxxxxxx |xxxxxxxxxxxxx |xxxxxxxxxxxxx |     19663273 |     19663273 |     19663273 |xxxxxxxxxxxxx |xxxxxxxxxxxxx |xxxxxxxxxxxxx |xxxxxxxxxxxxx |     40721476 |     40721476 |     40721476 |xxxxxxxxxxxxx |xxxxxxxxxxxxx |xxxxxxxxxxxxx |xxxxxxxxxxxxx |    117025962 |    117025962 |    117025962 |xxxxxxxxxxxxx |xxxxxxxxxxxxx |xxxxxxxxxxxxx |xxxxxxxxxxxxx |    263316610 |    263316610 |    263316610 |
bpred_bimod.updates                         108465 |       108465 |       108465 |xxxxxxxxxxxxx |xxxxxxxxxxxxx |xxxxxxxxxxxxx |xxxxxxxxxxxxx |       228723 |       228723 |       228723 |xxxxxxxxxxxxx |xxxxxxxxxxxxx |xxxxxxxxxxxxx |xxxxxxxxxxxxx |       477542 |       477542 |       477542 |xxxxxxxxxxxxx |xxxxxxxxxxxxx |xxxxxxxxxxxxx |xxxxxxxxxxxxx |      1000747 |      1000747 |      1000747 |xxxxxxxxxxxxx |xxxxxxxxxxxxx |xxxxxxxxxxxxx |xxxxxxxxxxxxx |      2108086 |      2108086 |      2108086 |xxxxxxxxxxxxx |xxxxxxxxxxxxx |xxxxxxxxxxxxx |xxxxxxxxxxxxx |      4483944 |      4483944 |      4483944 |xxxxxxxxxxxxx |xxxxxxxxxxxxx |xxxxxxxxxxxxx |xxxxxxxxxxxxx |      9289664 |      9289664 |      9289664 |xxxxxxxxxxxxx |xxxxxxxxxxxxx |xxxxxxxxxxxxx |xxxxxxxxxxxxx |     19663273 |     19663273 |     19663273 |xxxxxxxxxxxxx |xxxxxxxxxxxxx |xxxxxxxxxxxxx |xxxxxxxxxxxxx |     40721476 |     40721476 |     40721476 |xxxxxxxxxxxxx |xxxxxxxxxxxxx |xxxxxxxxxxxxx |xxxxxxxxxxxxx |    117025962 |    117025962 |    117025962 |xxxxxxxxxxxxx |xxxxxxxxxxxxx |xxxxxxxxxxxxx |xxxxxxxxxxxxx |    263316610 |    263316610 |    263316610 |
bpred_bimod.addr_hits                        85211 |        85209 |        85214 |xxxxxxxxxxxxx |xxxxxxxxxxxxx |xxxxxxxxxxxxx |xxxxxxxxxxxxx |       179760 |       179761 |       179767 |xxxxxxxxxxxxx |xxxxxxxxxxxxx |xxxxxxxxxxxxx |xxxxxxxxxxxxx |       374405 |       374404 |       374408 |xxxxxxxxxxxxx |xxxxxxxxxxxxx |xxxxxxxxxxxxx |xxxxxxxxxxxxx |       776247 |       776246 |       776252 |xxxxxxxxxxxxx |xxxxxxxxxxxxx |xxxxxxxxxxxxx |xxxxxxxxxxxxx |      1631427 |      1631426 |      1631433 |xxxxxxxxxxxxx |xxxxxxxxxxxxx |xxxxxxxxxxxxx |xxxxxxxxxxxxx |      3488862 |      3488861 |      3488867 |xxxxxxxxxxxxx |xxxxxxxxxxxxx |xxxxxxxxxxxxx |xxxxxxxxxxxxx |      7162183 |      7162182 |      7162189 |xxxxxxxxxxxxx |xxxxxxxxxxxxx |xxxxxxxxxxxxx |xxxxxxxxxxxxx |     15234348 |     15234347 |     15234354 |xxxxxxxxxxxxx |xxxxxxxxxxxxx |xxxxxxxxxxxxx |xxxxxxxxxxxxx |     31354505 |     31354504 |     31354510 |xxxxxxxxxxxxx |xxxxxxxxxxxxx |xxxxxxxxxxxxx |xxxxxxxxxxxxx |     97774202 |     97774205 |     97774210 |xxxxxxxxxxxxx |xxxxxxxxxxxxx |xxxxxxxxxxxxx |xxxxxxxxxxxxx |    224819633 |    224819636 |    224819637 |
bpred_bimod.dir_hits                         85334 |        85331 |        85335 |xxxxxxxxxxxxx |xxxxxxxxxxxxx |xxxxxxxxxxxxx |xxxxxxxxxxxxx |       179884 |       179883 |       179887 |xxxxxxxxxxxxx |xxxxxxxxxxxxx |xxxxxxxxxxxxx |xxxxxxxxxxxxx |       374530 |       374526 |       374529 |xxxxxxxxxxxxx |xxxxxxxxxxxxx |xxxxxxxxxxxxx |xxxxxxxxxxxxx |       776374 |       776371 |       776374 |xxxxxxxxxxxxx |xxxxxxxxxxxxx |xxxxxxxxxxxxx |xxxxxxxxxxxxx |      1631556 |      1631553 |      1631558 |xxxxxxxxxxxxx |xxxxxxxxxxxxx |xxxxxxxxxxxxx |xxxxxxxxxxxxx |      3488985 |      3488982 |      3488985 |xxxxxxxxxxxxx |xxxxxxxxxxxxx |xxxxxxxxxxxxx |xxxxxxxxxxxxx |      7162308 |      7162305 |      7162310 |xxxxxxxxxxxxx |xxxxxxxxxxxxx |xxxxxxxxxxxxx |xxxxxxxxxxxxx |     15234473 |     15234470 |     15234475 |xxxxxxxxxxxxx |xxxxxxxxxxxxx |xxxxxxxxxxxxx |xxxxxxxxxxxxx |     31354633 |     31354630 |     31354632 |xxxxxxxxxxxxx |xxxxxxxxxxxxx |xxxxxxxxxxxxx |xxxxxxxxxxxxx |     97774366 |     97774365 |     97774369 |xxxxxxxxxxxxx |xxxxxxxxxxxxx |xxxxxxxxxxxxx |xxxxxxxxxxxxx |    224819800 |    224819799 |    224819797 |
bpred_bimod.misses                           23131 |        23134 |        23130 |xxxxxxxxxxxxx |xxxxxxxxxxxxx |xxxxxxxxxxxxx |xxxxxxxxxxxxx |        48839 |        48840 |        48836 |xxxxxxxxxxxxx |xxxxxxxxxxxxx |xxxxxxxxxxxxx |xxxxxxxxxxxxx |       103012 |       103016 |       103013 |xxxxxxxxxxxxx |xxxxxxxxxxxxx |xxxxxxxxxxxxx |xxxxxxxxxxxxx |       224373 |       224376 |       224373 |xxxxxxxxxxxxx |xxxxxxxxxxxxx |xxxxxxxxxxxxx |xxxxxxxxxxxxx |       476530 |       476533 |       476528 |xxxxxxxxxxxxx |xxxxxxxxxxxxx |xxxxxxxxxxxxx |xxxxxxxxxxxxx |       994959 |       994962 |       994959 |xxxxxxxxxxxxx |xxxxxxxxxxxxx |xxxxxxxxxxxxx |xxxxxxxxxxxxx |      2127356 |      2127359 |      2127354 |xxxxxxxxxxxxx |xxxxxxxxxxxxx |xxxxxxxxxxxxx |xxxxxxxxxxxxx |      4428800 |      4428803 |      4428798 |xxxxxxxxxxxxx |xxxxxxxxxxxxx |xxxxxxxxxxxxx |xxxxxxxxxxxxx |      9366843 |      9366846 |      9366844 |xxxxxxxxxxxxx |xxxxxxxxxxxxx |xxxxxxxxxxxxx |xxxxxxxxxxxxx |     19251596 |     19251597 |     19251593 |xxxxxxxxxxxxx |xxxxxxxxxxxxx |xxxxxxxxxxxxx |xxxxxxxxxxxxx |     38496810 |     38496811 |     38496813 |
bpred_bimod.jr_hits                           8560 |         8560 |         8560 |xxxxxxxxxxxxx |xxxxxxxxxxxxx |xxxxxxxxxxxxx |xxxxxxxxxxxxx |        16752 |        16752 |        16752 |xxxxxxxxxxxxx |xxxxxxxxxxxxx |xxxxxxxxxxxxx |xxxxxxxxxxxxx |        33136 |        33136 |        33136 |xxxxxxxxxxxxx |xxxxxxxxxxxxx |xxxxxxxxxxxxx |xxxxxxxxxxxxx |        65904 |        65904 |        65904 |xxxxxxxxxxxxx |xxxxxxxxxxxxx |xxxxxxxxxxxxx |xxxxxxxxxxxxx |       131440 |       131440 |       131440 |xxxxxxxxxxxxx |xxxxxxxxxxxxx |xxxxxxxxxxxxx |xxxxxxxxxxxxx |       262512 |       262512 |       262512 |xxxxxxxxxxxxx |xxxxxxxxxxxxx |xxxxxxxxxxxxx |xxxxxxxxxxxxx |       524656 |       524656 |       524656 |xxxxxxxxxxxxx |xxxxxxxxxxxxx |xxxxxxxxxxxxx |xxxxxxxxxxxxx |      1048944 |      1048944 |      1048944 |xxxxxxxxxxxxx |xxxxxxxxxxxxx |xxxxxxxxxxxxx |xxxxxxxxxxxxx |      2097520 |      2097520 |      2097520 |xxxxxxxxxxxxx |xxxxxxxxxxxxx |xxxxxxxxxxxxx |xxxxxxxxxxxxx |      4194705 |      4194705 |      4194705 |xxxxxxxxxxxxx |xxxxxxxxxxxxx |xxxxxxxxxxxxx |xxxxxxxxxxxxx |      8389009 |      8389009 |      8389009 |
bpred_bimod.jr_seen                           8560 |         8560 |         8560 |xxxxxxxxxxxxx |xxxxxxxxxxxxx |xxxxxxxxxxxxx |xxxxxxxxxxxxx |        16752 |        16752 |        16752 |xxxxxxxxxxxxx |xxxxxxxxxxxxx |xxxxxxxxxxxxx |xxxxxxxxxxxxx |        33136 |        33136 |        33136 |xxxxxxxxxxxxx |xxxxxxxxxxxxx |xxxxxxxxxxxxx |xxxxxxxxxxxxx |        65904 |        65904 |        65904 |xxxxxxxxxxxxx |xxxxxxxxxxxxx |xxxxxxxxxxxxx |xxxxxxxxxxxxx |       131440 |       131440 |       131440 |xxxxxxxxxxxxx |xxxxxxxxxxxxx |xxxxxxxxxxxxx |xxxxxxxxxxxxx |       262512 |       262512 |       262512 |xxxxxxxxxxxxx |xxxxxxxxxxxxx |xxxxxxxxxxxxx |xxxxxxxxxxxxx |       524656 |       524656 |       524656 |xxxxxxxxxxxxx |xxxxxxxxxxxxx |xxxxxxxxxxxxx |xxxxxxxxxxxxx |      1048944 |      1048944 |      1048944 |xxxxxxxxxxxxx |xxxxxxxxxxxxx |xxxxxxxxxxxxx |xxxxxxxxxxxxx |      2097520 |      2097520 |      2097520 |xxxxxxxxxxxxx |xxxxxxxxxxxxx |xxxxxxxxxxxxx |xxxxxxxxxxxxx |      4194706 |      4194706 |      4194706 |xxxxxxxxxxxxx |xxxxxxxxxxxxx |xxxxxxxxxxxxx |xxxxxxxxxxxxx |      8389010 |      8389010 |      8389010 |
bpred_bimod.jr_non_ras_hits.PP                   0 |            0 |            0 |xxxxxxxxxxxxx |xxxxxxxxxxxxx |xxxxxxxxxxxxx |xxxxxxxxxxxxx |            0 |            0 |            0 |xxxxxxxxxxxxx |xxxxxxxxxxxxx |xxxxxxxxxxxxx |xxxxxxxxxxxxx |            0 |            0 |            0 |xxxxxxxxxxxxx |xxxxxxxxxxxxx |xxxxxxxxxxxxx |xxxxxxxxxxxxx |            0 |            0 |            0 |xxxxxxxxxxxxx |xxxxxxxxxxxxx |xxxxxxxxxxxxx |xxxxxxxxxxxxx |            0 |            0 |            0 |xxxxxxxxxxxxx |xxxxxxxxxxxxx |xxxxxxxxxxxxx |xxxxxxxxxxxxx |            0 |            0 |            0 |xxxxxxxxxxxxx |xxxxxxxxxxxxx |xxxxxxxxxxxxx |xxxxxxxxxxxxx |            0 |            0 |            0 |xxxxxxxxxxxxx |xxxxxxxxxxxxx |xxxxxxxxxxxxx |xxxxxxxxxxxxx |            0 |            0 |            0 |xxxxxxxxxxxxx |xxxxxxxxxxxxx |xxxxxxxxxxxxx |xxxxxxxxxxxxx |            0 |            0 |            0 |xxxxxxxxxxxxx |xxxxxxxxxxxxx |xxxxxxxxxxxxx |xxxxxxxxxxxxx |            0 |            0 |            0 |xxxxxxxxxxxxx |xxxxxxxxxxxxx |xxxxxxxxxxxxx |xxxxxxxxxxxxx |            0 |            0 |            0 |
bpred_bimod.jr_non_ras_seen.PP                   0 |            0 |            0 |xxxxxxxxxxxxx |xxxxxxxxxxxxx |xxxxxxxxxxxxx |xxxxxxxxxxxxx |            0 |            0 |            0 |xxxxxxxxxxxxx |xxxxxxxxxxxxx |xxxxxxxxxxxxx |xxxxxxxxxxxxx |            0 |            0 |            0 |xxxxxxxxxxxxx |xxxxxxxxxxxxx |xxxxxxxxxxxxx |xxxxxxxxxxxxx |            0 |            0 |            0 |xxxxxxxxxxxxx |xxxxxxxxxxxxx |xxxxxxxxxxxxx |xxxxxxxxxxxxx |            0 |            0 |            0 |xxxxxxxxxxxxx |xxxxxxxxxxxxx |xxxxxxxxxxxxx |xxxxxxxxxxxxx |            0 |            0 |            0 |xxxxxxxxxxxxx |xxxxxxxxxxxxx |xxxxxxxxxxxxx |xxxxxxxxxxxxx |            0 |            0 |            0 |xxxxxxxxxxxxx |xxxxxxxxxxxxx |xxxxxxxxxxxxx |xxxxxxxxxxxxx |            0 |            0 |            0 |xxxxxxxxxxxxx |xxxxxxxxxxxxx |xxxxxxxxxxxxx |xxxxxxxxxxxxx |            0 |            0 |            0 |xxxxxxxxxxxxx |xxxxxxxxxxxxx |xxxxxxxxxxxxx |xxxxxxxxxxxxx |            1 |            1 |            1 |xxxxxxxxxxxxx |xxxxxxxxxxxxx |xxxxxxxxxxxxx |xxxxxxxxxxxxx |            1 |            1 |            1 |
bpred_bimod.bpred_addr_rate                 0.7856 |       0.7856 |       0.7856 |xxxxxxxxxxxxx |xxxxxxxxxxxxx |xxxxxxxxxxxxx |xxxxxxxxxxxxx |       0.7859 |       0.7859 |       0.7860 |xxxxxxxxxxxxx |xxxxxxxxxxxxx |xxxxxxxxxxxxx |xxxxxxxxxxxxx |       0.7840 |       0.7840 |       0.7840 |xxxxxxxxxxxxx |xxxxxxxxxxxxx |xxxxxxxxxxxxx |xxxxxxxxxxxxx |       0.7757 |       0.7757 |       0.7757 |xxxxxxxxxxxxx |xxxxxxxxxxxxx |xxxxxxxxxxxxx |xxxxxxxxxxxxx |       0.7739 |       0.7739 |       0.7739 |xxxxxxxxxxxxx |xxxxxxxxxxxxx |xxxxxxxxxxxxx |xxxxxxxxxxxxx |       0.7781 |       0.7781 |       0.7781 |xxxxxxxxxxxxx |xxxxxxxxxxxxx |xxxxxxxxxxxxx |xxxxxxxxxxxxx |       0.7710 |       0.7710 |       0.7710 |xxxxxxxxxxxxx |xxxxxxxxxxxxx |xxxxxxxxxxxxx |xxxxxxxxxxxxx |       0.7748 |       0.7748 |       0.7748 |xxxxxxxxxxxxx |xxxxxxxxxxxxx |xxxxxxxxxxxxx |xxxxxxxxxxxxx |       0.7700 |       0.7700 |       0.7700 |xxxxxxxxxxxxx |xxxxxxxxxxxxx |xxxxxxxxxxxxx |xxxxxxxxxxxxx |       0.8355 |       0.8355 |       0.8355 |xxxxxxxxxxxxx |xxxxxxxxxxxxx |xxxxxxxxxxxxx |xxxxxxxxxxxxx |       0.8538 |       0.8538 |       0.8538 |
bpred_bimod.bpred_dir_rate                  0.7867 |       0.7867 |       0.7868 |xxxxxxxxxxxxx |xxxxxxxxxxxxx |xxxxxxxxxxxxx |xxxxxxxxxxxxx |       0.7865 |       0.7865 |       0.7865 |xxxxxxxxxxxxx |xxxxxxxxxxxxx |xxxxxxxxxxxxx |xxxxxxxxxxxxx |       0.7843 |       0.7843 |       0.7843 |xxxxxxxxxxxxx |xxxxxxxxxxxxx |xxxxxxxxxxxxx |xxxxxxxxxxxxx |       0.7758 |       0.7758 |       0.7758 |xxxxxxxxxxxxx |xxxxxxxxxxxxx |xxxxxxxxxxxxx |xxxxxxxxxxxxx |       0.7740 |       0.7739 |       0.7740 |xxxxxxxxxxxxx |xxxxxxxxxxxxx |xxxxxxxxxxxxx |xxxxxxxxxxxxx |       0.7781 |       0.7781 |       0.7781 |xxxxxxxxxxxxx |xxxxxxxxxxxxx |xxxxxxxxxxxxx |xxxxxxxxxxxxx |       0.7710 |       0.7710 |       0.7710 |xxxxxxxxxxxxx |xxxxxxxxxxxxx |xxxxxxxxxxxxx |xxxxxxxxxxxxx |       0.7748 |       0.7748 |       0.7748 |xxxxxxxxxxxxx |xxxxxxxxxxxxx |xxxxxxxxxxxxx |xxxxxxxxxxxxx |       0.7700 |       0.7700 |       0.7700 |xxxxxxxxxxxxx |xxxxxxxxxxxxx |xxxxxxxxxxxxx |xxxxxxxxxxxxx |       0.8355 |       0.8355 |       0.8355 |xxxxxxxxxxxxx |xxxxxxxxxxxxx |xxxxxxxxxxxxx |xxxxxxxxxxxxx |       0.8538 |       0.8538 |       0.8538 |
bpred_bimod.bpred_jr_rate                   1.0000 |       1.0000 |       1.0000 |xxxxxxxxxxxxx |xxxxxxxxxxxxx |xxxxxxxxxxxxx |xxxxxxxxxxxxx |       1.0000 |       1.0000 |       1.0000 |xxxxxxxxxxxxx |xxxxxxxxxxxxx |xxxxxxxxxxxxx |xxxxxxxxxxxxx |       1.0000 |       1.0000 |       1.0000 |xxxxxxxxxxxxx |xxxxxxxxxxxxx |xxxxxxxxxxxxx |xxxxxxxxxxxxx |       1.0000 |       1.0000 |       1.0000 |xxxxxxxxxxxxx |xxxxxxxxxxxxx |xxxxxxxxxxxxx |xxxxxxxxxxxxx |       1.0000 |       1.0000 |       1.0000 |xxxxxxxxxxxxx |xxxxxxxxxxxxx |xxxxxxxxxxxxx |xxxxxxxxxxxxx |       1.0000 |       1.0000 |       1.0000 |xxxxxxxxxxxxx |xxxxxxxxxxxxx |xxxxxxxxxxxxx |xxxxxxxxxxxxx |       1.0000 |       1.0000 |       1.0000 |xxxxxxxxxxxxx |xxxxxxxxxxxxx |xxxxxxxxxxxxx |xxxxxxxxxxxxx |       1.0000 |       1.0000 |       1.0000 |xxxxxxxxxxxxx |xxxxxxxxxxxxx |xxxxxxxxxxxxx |xxxxxxxxxxxxx |       1.0000 |       1.0000 |       1.0000 |xxxxxxxxxxxxx |xxxxxxxxxxxxx |xxxxxxxxxxxxx |xxxxxxxxxxxxx |       1.0000 |       1.0000 |       1.0000 |xxxxxxxxxxxxx |xxxxxxxxxxxxx |xxxxxxxxxxxxx |xxxxxxxxxxxxx |       1.0000 |       1.0000 |       1.0000 |
bpred_bimod.bpred_jr_non_ras_rate.PP       <error: |      <error: |      <error: |xxxxxxxxxxxxx |xxxxxxxxxxxxx |xxxxxxxxxxxxx |xxxxxxxxxxxxx |      <error: |      <error: |      <error: |xxxxxxxxxxxxx |xxxxxxxxxxxxx |xxxxxxxxxxxxx |xxxxxxxxxxxxx |      <error: |      <error: |      <error: |xxxxxxxxxxxxx |xxxxxxxxxxxxx |xxxxxxxxxxxxx |xxxxxxxxxxxxx |      <error: |      <error: |      <error: |xxxxxxxxxxxxx |xxxxxxxxxxxxx |xxxxxxxxxxxxx |xxxxxxxxxxxxx |      <error: |      <error: |      <error: |xxxxxxxxxxxxx |xxxxxxxxxxxxx |xxxxxxxxxxxxx |xxxxxxxxxxxxx |      <error: |      <error: |      <error: |xxxxxxxxxxxxx |xxxxxxxxxxxxx |xxxxxxxxxxxxx |xxxxxxxxxxxxx |      <error: |      <error: |      <error: |xxxxxxxxxxxxx |xxxxxxxxxxxxx |xxxxxxxxxxxxx |xxxxxxxxxxxxx |      <error: |      <error: |      <error: |xxxxxxxxxxxxx |xxxxxxxxxxxxx |xxxxxxxxxxxxx |xxxxxxxxxxxxx |      <error: |      <error: |      <error: |xxxxxxxxxxxxx |xxxxxxxxxxxxx |xxxxxxxxxxxxx |xxxxxxxxxxxxx |       0.0000 |       0.0000 |       0.0000 |xxxxxxxxxxxxx |xxxxxxxxxxxxx |xxxxxxxxxxxxx |xxxxxxxxxxxxx |       0.0000 |       0.0000 |       0.0000 |
bpred_bimod.retstack_pushes                   8562 |         8562 |         8562 |xxxxxxxxxxxxx |xxxxxxxxxxxxx |xxxxxxxxxxxxx |xxxxxxxxxxxxx |        16754 |        16754 |        16754 |xxxxxxxxxxxxx |xxxxxxxxxxxxx |xxxxxxxxxxxxx |xxxxxxxxxxxxx |        33138 |        33138 |        33138 |xxxxxxxxxxxxx |xxxxxxxxxxxxx |xxxxxxxxxxxxx |xxxxxxxxxxxxx |        65906 |        65906 |        65906 |xxxxxxxxxxxxx |xxxxxxxxxxxxx |xxxxxxxxxxxxx |xxxxxxxxxxxxx |       131442 |       131442 |       131442 |xxxxxxxxxxxxx |xxxxxxxxxxxxx |xxxxxxxxxxxxx |xxxxxxxxxxxxx |       262514 |       262514 |       262514 |xxxxxxxxxxxxx |xxxxxxxxxxxxx |xxxxxxxxxxxxx |xxxxxxxxxxxxx |       524658 |       524658 |       524658 |xxxxxxxxxxxxx |xxxxxxxxxxxxx |xxxxxxxxxxxxx |xxxxxxxxxxxxx |      1048946 |      1048946 |      1048946 |xxxxxxxxxxxxx |xxxxxxxxxxxxx |xxxxxxxxxxxxx |xxxxxxxxxxxxx |      2097522 |      2097522 |      2097522 |xxxxxxxxxxxxx |xxxxxxxxxxxxx |xxxxxxxxxxxxx |xxxxxxxxxxxxx |      4194707 |      4194707 |      4194707 |xxxxxxxxxxxxx |xxxxxxxxxxxxx |xxxxxxxxxxxxx |xxxxxxxxxxxxx |      8389011 |      8389011 |      8389011 |
bpred_bimod.retstack_pops                     8560 |         8560 |         8560 |xxxxxxxxxxxxx |xxxxxxxxxxxxx |xxxxxxxxxxxxx |xxxxxxxxxxxxx |        16752 |        16752 |        16752 |xxxxxxxxxxxxx |xxxxxxxxxxxxx |xxxxxxxxxxxxx |xxxxxxxxxxxxx |        33136 |        33136 |        33136 |xxxxxxxxxxxxx |xxxxxxxxxxxxx |xxxxxxxxxxxxx |xxxxxxxxxxxxx |        65904 |        65904 |        65904 |xxxxxxxxxxxxx |xxxxxxxxxxxxx |xxxxxxxxxxxxx |xxxxxxxxxxxxx |       131440 |       131440 |       131440 |xxxxxxxxxxxxx |xxxxxxxxxxxxx |xxxxxxxxxxxxx |xxxxxxxxxxxxx |       262512 |       262512 |       262512 |xxxxxxxxxxxxx |xxxxxxxxxxxxx |xxxxxxxxxxxxx |xxxxxxxxxxxxx |       524656 |       524656 |       524656 |xxxxxxxxxxxxx |xxxxxxxxxxxxx |xxxxxxxxxxxxx |xxxxxxxxxxxxx |      1048944 |      1048944 |      1048944 |xxxxxxxxxxxxx |xxxxxxxxxxxxx |xxxxxxxxxxxxx |xxxxxxxxxxxxx |      2097520 |      2097520 |      2097520 |xxxxxxxxxxxxx |xxxxxxxxxxxxx |xxxxxxxxxxxxx |xxxxxxxxxxxxx |      4194705 |      4194705 |      4194705 |xxxxxxxxxxxxx |xxxxxxxxxxxxx |xxxxxxxxxxxxx |xxxxxxxxxxxxx |      8389009 |      8389009 |      8389009 |
bpred_bimod.used_ras.PP                       8560 |         8560 |         8560 |xxxxxxxxxxxxx |xxxxxxxxxxxxx |xxxxxxxxxxxxx |xxxxxxxxxxxxx |        16752 |        16752 |        16752 |xxxxxxxxxxxxx |xxxxxxxxxxxxx |xxxxxxxxxxxxx |xxxxxxxxxxxxx |        33136 |        33136 |        33136 |xxxxxxxxxxxxx |xxxxxxxxxxxxx |xxxxxxxxxxxxx |xxxxxxxxxxxxx |        65904 |        65904 |        65904 |xxxxxxxxxxxxx |xxxxxxxxxxxxx |xxxxxxxxxxxxx |xxxxxxxxxxxxx |       131440 |       131440 |       131440 |xxxxxxxxxxxxx |xxxxxxxxxxxxx |xxxxxxxxxxxxx |xxxxxxxxxxxxx |       262512 |       262512 |       262512 |xxxxxxxxxxxxx |xxxxxxxxxxxxx |xxxxxxxxxxxxx |xxxxxxxxxxxxx |       524656 |       524656 |       524656 |xxxxxxxxxxxxx |xxxxxxxxxxxxx |xxxxxxxxxxxxx |xxxxxxxxxxxxx |      1048944 |      1048944 |      1048944 |xxxxxxxxxxxxx |xxxxxxxxxxxxx |xxxxxxxxxxxxx |xxxxxxxxxxxxx |      2097520 |      2097520 |      2097520 |xxxxxxxxxxxxx |xxxxxxxxxxxxx |xxxxxxxxxxxxx |xxxxxxxxxxxxx |      4194705 |      4194705 |      4194705 |xxxxxxxxxxxxx |xxxxxxxxxxxxx |xxxxxxxxxxxxx |xxxxxxxxxxxxx |      8389009 |      8389009 |      8389009 |
bpred_bimod.ras_hits.PP                       8560 |         8560 |         8560 |xxxxxxxxxxxxx |xxxxxxxxxxxxx |xxxxxxxxxxxxx |xxxxxxxxxxxxx |        16752 |        16752 |        16752 |xxxxxxxxxxxxx |xxxxxxxxxxxxx |xxxxxxxxxxxxx |xxxxxxxxxxxxx |        33136 |        33136 |        33136 |xxxxxxxxxxxxx |xxxxxxxxxxxxx |xxxxxxxxxxxxx |xxxxxxxxxxxxx |        65904 |        65904 |        65904 |xxxxxxxxxxxxx |xxxxxxxxxxxxx |xxxxxxxxxxxxx |xxxxxxxxxxxxx |       131440 |       131440 |       131440 |xxxxxxxxxxxxx |xxxxxxxxxxxxx |xxxxxxxxxxxxx |xxxxxxxxxxxxx |       262512 |       262512 |       262512 |xxxxxxxxxxxxx |xxxxxxxxxxxxx |xxxxxxxxxxxxx |xxxxxxxxxxxxx |       524656 |       524656 |       524656 |xxxxxxxxxxxxx |xxxxxxxxxxxxx |xxxxxxxxxxxxx |xxxxxxxxxxxxx |      1048944 |      1048944 |      1048944 |xxxxxxxxxxxxx |xxxxxxxxxxxxx |xxxxxxxxxxxxx |xxxxxxxxxxxxx |      2097520 |      2097520 |      2097520 |xxxxxxxxxxxxx |xxxxxxxxxxxxx |xxxxxxxxxxxxx |xxxxxxxxxxxxx |      4194705 |      4194705 |      4194705 |xxxxxxxxxxxxx |xxxxxxxxxxxxx |xxxxxxxxxxxxx |xxxxxxxxxxxxx |      8389009 |      8389009 |      8389009 |
bpred_bimod.ras_rate.PP                     1.0000 |       1.0000 |       1.0000 |xxxxxxxxxxxxx |xxxxxxxxxxxxx |xxxxxxxxxxxxx |xxxxxxxxxxxxx |       1.0000 |       1.0000 |       1.0000 |xxxxxxxxxxxxx |xxxxxxxxxxxxx |xxxxxxxxxxxxx |xxxxxxxxxxxxx |       1.0000 |       1.0000 |       1.0000 |xxxxxxxxxxxxx |xxxxxxxxxxxxx |xxxxxxxxxxxxx |xxxxxxxxxxxxx |       1.0000 |       1.0000 |       1.0000 |xxxxxxxxxxxxx |xxxxxxxxxxxxx |xxxxxxxxxxxxx |xxxxxxxxxxxxx |       1.0000 |       1.0000 |       1.0000 |xxxxxxxxxxxxx |xxxxxxxxxxxxx |xxxxxxxxxxxxx |xxxxxxxxxxxxx |       1.0000 |       1.0000 |       1.0000 |xxxxxxxxxxxxx |xxxxxxxxxxxxx |xxxxxxxxxxxxx |xxxxxxxxxxxxx |       1.0000 |       1.0000 |       1.0000 |xxxxxxxxxxxxx |xxxxxxxxxxxxx |xxxxxxxxxxxxx |xxxxxxxxxxxxx |       1.0000 |       1.0000 |       1.0000 |xxxxxxxxxxxxx |xxxxxxxxxxxxx |xxxxxxxxxxxxx |xxxxxxxxxxxxx |       1.0000 |       1.0000 |       1.0000 |xxxxxxxxxxxxx |xxxxxxxxxxxxx |xxxxxxxxxxxxx |xxxxxxxxxxxxx |       1.0000 |       1.0000 |       1.0000 |xxxxxxxxxxxxx |xxxxxxxxxxxxx |xxxxxxxxxxxxx |xxxxxxxxxxxxx |       1.0000 |       1.0000 |       1.0000 |
bpred_2lev.lookups                   xxxxxxxxxxxxx |xxxxxxxxxxxxx |xxxxxxxxxxxxx |       108465 |       108465 |       108465 |       108465 |xxxxxxxxxxxxx |xxxxxxxxxxxxx |xxxxxxxxxxxxx |       228723 |       228723 |       228723 |       228723 |xxxxxxxxxxxxx |xxxxxxxxxxxxx |xxxxxxxxxxxxx |       477542 |       477542 |       477542 |       477542 |xxxxxxxxxxxxx |xxxxxxxxxxxxx |xxxxxxxxxxxxx |      1000747 |      1000747 |      1000747 |      1000747 |xxxxxxxxxxxxx |xxxxxxxxxxxxx |xxxxxxxxxxxxx |      2108086 |      2108086 |      2108086 |      2108086 |xxxxxxxxxxxxx |xxxxxxxxxxxxx |xxxxxxxxxxxxx |      4483944 |      4483944 |      4483944 |      4483944 |xxxxxxxxxxxxx |xxxxxxxxxxxxx |xxxxxxxxxxxxx |      9289664 |      9289664 |      9289664 |      9289664 |xxxxxxxxxxxxx |xxxxxxxxxxxxx |xxxxxxxxxxxxx |     19663273 |     19663273 |     19663273 |     19663273 |xxxxxxxxxxxxx |xxxxxxxxxxxxx |xxxxxxxxxxxxx |     40721476 |     40721476 |     40721476 |     40721476 |xxxxxxxxxxxxx |xxxxxxxxxxxxx |xxxxxxxxxxxxx |    117025962 |    117025962 |    117025962 |    117025962 |xxxxxxxxxxxxx |xxxxxxxxxxxxx |xxxxxxxxxxxxx |    263316610 |    263316610 |    263316610 |    263316610 |
[...]
bpred_2lev.retstack_pushes           xxxxxxxxxxxxx |xxxxxxxxxxxxx |xxxxxxxxxxxxx |         8562 |         8562 |         8562 |         8562 |xxxxxxxxxxxxx |xxxxxxxxxxxxx |xxxxxxxxxxxxx |        16754 |        16754 |        16754 |        16754 |xxxxxxxxxxxxx |xxxxxxxxxxxxx |xxxxxxxxxxxxx |        33138 |        33138 |        33138 |        33138 |xxxxxxxxxxxxx |xxxxxxxxxxxxx |xxxxxxxxxxxxx |        65906 |        65906 |        65906 |        65906 |xxxxxxxxxxxxx |xxxxxxxxxxxxx |xxxxxxxxxxxxx |       131442 |       131442 |       131442 |       131442 |xxxxxxxxxxxxx |xxxxxxxxxxxxx |xxxxxxxxxxxxx |       262514 |       262514 |       262514 |       262514 |xxxxxxxxxxxxx |xxxxxxxxxxxxx |xxxxxxxxxxxxx |       524658 |       524658 |       524658 |       524658 |xxxxxxxxxxxxx |xxxxxxxxxxxxx |xxxxxxxxxxxxx |      1048946 |      1048946 |      1048946 |      1048946 |xxxxxxxxxxxxx |xxxxxxxxxxxxx |xxxxxxxxxxxxx |      2097522 |      2097522 |      2097522 |      2097522 |xxxxxxxxxxxxx |xxxxxxxxxxxxx |xxxxxxxxxxxxx |      4194707 |      4194707 |      4194707 |      4194707 |xxxxxxxxxxxxx |xxxxxxxxxxxxx |xxxxxxxxxxxxx |      8389011 |      8389011 |      8389011 |      8389011 |
bpred_2lev.retstack_pops             xxxxxxxxxxxxx |xxxxxxxxxxxxx |xxxxxxxxxxxxx |         8560 |         8560 |         8560 |         8560 |xxxxxxxxxxxxx |xxxxxxxxxxxxx |xxxxxxxxxxxxx |        16752 |        16752 |        16752 |        16752 |xxxxxxxxxxxxx |xxxxxxxxxxxxx |xxxxxxxxxxxxx |        33136 |        33136 |        33136 |        33136 |xxxxxxxxxxxxx |xxxxxxxxxxxxx |xxxxxxxxxxxxx |        65904 |        65904 |        65904 |        65904 |xxxxxxxxxxxxx |xxxxxxxxxxxxx |xxxxxxxxxxxxx |       131440 |       131440 |       131440 |       131440 |xxxxxxxxxxxxx |xxxxxxxxxxxxx |xxxxxxxxxxxxx |       262512 |       262512 |       262512 |       262512 |xxxxxxxxxxxxx |xxxxxxxxxxxxx |xxxxxxxxxxxxx |       524656 |       524656 |       524656 |       524656 |xxxxxxxxxxxxx |xxxxxxxxxxxxx |xxxxxxxxxxxxx |      1048944 |      1048944 |      1048944 |      1048944 |xxxxxxxxxxxxx |xxxxxxxxxxxxx |xxxxxxxxxxxxx |      2097520 |      2097520 |      2097520 |      2097520 |xxxxxxxxxxxxx |xxxxxxxxxxxxx |xxxxxxxxxxxxx |      4194705 |      4194705 |      4194705 |      4194705 |xxxxxxxxxxxxx |xxxxxxxxxxxxx |xxxxxxxxxxxxx |      8389009 |      8389009 |      8389009 |      8389009 |
bpred_2lev.used_ras.PP               xxxxxxxxxxxxx |xxxxxxxxxxxxx |xxxxxxxxxxxxx |         8560 |         8560 |         8560 |         8560 |xxxxxxxxxxxxx |xxxxxxxxxxxxx |xxxxxxxxxxxxx |        16752 |        16752 |        16752 |        16752 |xxxxxxxxxxxxx |xxxxxxxxxxxxx |xxxxxxxxxxxxx |        33136 |        33136 |        33136 |        33136 |xxxxxxxxxxxxx |xxxxxxxxxxxxx |xxxxxxxxxxxxx |        65904 |        65904 |        65904 |        65904 |xxxxxxxxxxxxx |xxxxxxxxxxxxx |xxxxxxxxxxxxx |       131440 |       131440 |       131440 |       131440 |xxxxxxxxxxxxx |xxxxxxxxxxxxx |xxxxxxxxxxxxx |       262512 |       262512 |       262512 |       262512 |xxxxxxxxxxxxx |xxxxxxxxxxxxx |xxxxxxxxxxxxx |       524656 |       524656 |       524656 |       524656 |xxxxxxxxxxxxx |xxxxxxxxxxxxx |xxxxxxxxxxxxx |      1048944 |      1048944 |      1048944 |      1048944 |xxxxxxxxxxxxx |xxxxxxxxxxxxx |xxxxxxxxxxxxx |      2097520 |      2097520 |      2097520 |      2097520 |xxxxxxxxxxxxx |xxxxxxxxxxxxx |xxxxxxxxxxxxx |      4194705 |      4194705 |      4194705 |      4194705 |xxxxxxxxxxxxx |xxxxxxxxxxxxx |xxxxxxxxxxxxx |      8389009 |      8389009 |      8389009 |      8389009 |
bpred_2lev.ras_hits.PP               xxxxxxxxxxxxx |xxxxxxxxxxxxx |xxxxxxxxxxxxx |         8560 |         8560 |         8560 |         8560 |xxxxxxxxxxxxx |xxxxxxxxxxxxx |xxxxxxxxxxxxx |        16752 |        16752 |        16752 |        16752 |xxxxxxxxxxxxx |xxxxxxxxxxxxx |xxxxxxxxxxxxx |        33136 |        33136 |        33136 |        33136 |xxxxxxxxxxxxx |xxxxxxxxxxxxx |xxxxxxxxxxxxx |        65904 |        65904 |        65904 |        65904 |xxxxxxxxxxxxx |xxxxxxxxxxxxx |xxxxxxxxxxxxx |       131440 |       131440 |       131440 |       131440 |xxxxxxxxxxxxx |xxxxxxxxxxxxx |xxxxxxxxxxxxx |       262512 |       262512 |       262512 |       262512 |xxxxxxxxxxxxx |xxxxxxxxxxxxx |xxxxxxxxxxxxx |       524656 |       524656 |       524656 |       524656 |xxxxxxxxxxxxx |xxxxxxxxxxxxx |xxxxxxxxxxxxx |      1048944 |      1048944 |      1048944 |      1048944 |xxxxxxxxxxxxx |xxxxxxxxxxxxx |xxxxxxxxxxxxx |      2097520 |      2097520 |      2097520 |      2097520 |xxxxxxxxxxxxx |xxxxxxxxxxxxx |xxxxxxxxxxxxx |      4194705 |      4194705 |      4194705 |      4194705 |xxxxxxxxxxxxx |xxxxxxxxxxxxx |xxxxxxxxxxxxx |      8389009 |      8389009 |      8389009 |      8389009 |
bpred_2lev.ras_rate.PP               xxxxxxxxxxxxx |xxxxxxxxxxxxx |xxxxxxxxxxxxx |       1.0000 |       1.0000 |       1.0000 |       1.0000 |xxxxxxxxxxxxx |xxxxxxxxxxxxx |xxxxxxxxxxxxx |       1.0000 |       1.0000 |       1.0000 |       1.0000 |xxxxxxxxxxxxx |xxxxxxxxxxxxx |xxxxxxxxxxxxx |       1.0000 |       1.0000 |       1.0000 |       1.0000 |xxxxxxxxxxxxx |xxxxxxxxxxxxx |xxxxxxxxxxxxx |       1.0000 |       1.0000 |       1.0000 |       1.0000 |xxxxxxxxxxxxx |xxxxxxxxxxxxx |xxxxxxxxxxxxx |       1.0000 |       1.0000 |       1.0000 |       1.0000 |xxxxxxxxxxxxx |xxxxxxxxxxxxx |xxxxxxxxxxxxx |       1.0000 |       1.0000 |       1.0000 |       1.0000 |xxxxxxxxxxxxx |xxxxxxxxxxxxx |xxxxxxxxxxxxx |       1.0000 |       1.0000 |       1.0000 |       1.0000 |xxxxxxxxxxxxx |xxxxxxxxxxxxx |xxxxxxxxxxxxx |       1.0000 |       1.0000 |       1.0000 |       1.0000 |xxxxxxxxxxxxx |xxxxxxxxxxxxx |xxxxxxxxxxxxx |       1.0000 |       1.0000 |       1.0000 |       1.0000 |xxxxxxxxxxxxx |xxxxxxxxxxxxx |xxxxxxxxxxxxx |       1.0000 |       1.0000 |       1.0000 |       1.0000 |xxxxxxxxxxxxx |xxxxxxxxxxxxx |xxxxxxxxxxxxx |       1.0000 |       1.0000 |       1.0000 |       1.0000 |

Command list: 
	sslittle-na-sstrix-gcc -Wall -O3 -funroll-loops -finline-functions  -DRANDOM_SIZE=4096 -DSEED=0 -DSORT=multi_quicksort_seq multi_quicksort_seq1319210165.c simpleMain.c -o multi_quicksort_seq692937778
	sim-cache -cache:dl1 dl1:256:32:1:l -cache:dl2 dl2:131072:32:1:l -cache:il1 il1:256:32:1:l -cache:il2 dl2 multi_quicksort_seq692937778
	sim-cache -cache:dl1 dl1:256:32:1:l -cache:dl2 dl2:65536:32:1:l -cache:il1 il1:256:32:1:l -cache:il2 dl2 multi_quicksort_seq692937778
	sim-cache -cache:dl1 dl1:1:32:256:l -cache:dl2 dl2:1:32:131072:l -cache:il1 il1:1:32:256:l -cache:il2 dl2 multi_quicksort_seq692937778
	sim-cache -cache:dl1 dl1:1:32:256:l -cache:dl2 dl2:1:32:65536:l -cache:il1 il1:1:32:256:l -cache:il2 dl2 multi_quicksort_seq692937778
	sim-bpred -bpred bimod -bpred:bimod 512 multi_quicksort_seq692937778
	sim-bpred -bpred bimod -bpred:bimod 1024 multi_quicksort_seq692937778
	sim-bpred -bpred bimod -bpred:bimod 2048 multi_quicksort_seq692937778
	sim-bpred -bpred 2lev -bpred:2lev 1 512 10 1 multi_quicksort_seq692937778
	sim-bpred -bpred 2lev -bpred:2lev 1 1024 10 1 multi_quicksort_seq692937778
	sim-bpred -bpred 2lev -bpred:2lev 1 2048 10 1 multi_quicksort_seq692937778
	sim-bpred -bpred 2lev -bpred:2lev 1 4096 10 1 multi_quicksort_seq692937778
	sslittle-na-sstrix-gcc -Wall -O3 -funroll-loops -finline-functions  -DRANDOM_SIZE=8192 -DSEED=0 -DSORT=multi_quicksort_seq multi_quicksort_seq1319210165.c simpleMain.c -o multi_quicksort_seq692937778
	sim-cache -cache:dl1 dl1:256:32:1:l -cache:dl2 dl2:131072:32:1:l -cache:il1 il1:256:32:1:l -cache:il2 dl2 multi_quicksort_seq692937778
	sim-cache -cache:dl1 dl1:256:32:1:l -cache:dl2 dl2:65536:32:1:l -cache:il1 il1:256:32:1:l -cache:il2 dl2 multi_quicksort_seq692937778
	sim-cache -cache:dl1 dl1:1:32:256:l -cache:dl2 dl2:1:32:131072:l -cache:il1 il1:1:32:256:l -cache:il2 dl2 multi_quicksort_seq692937778
	sim-cache -cache:dl1 dl1:1:32:256:l -cache:dl2 dl2:1:32:65536:l -cache:il1 il1:1:32:256:l -cache:il2 dl2 multi_quicksort_seq692937778
	sim-bpred -bpred bimod -bpred:bimod 512 multi_quicksort_seq692937778
	sim-bpred -bpred bimod -bpred:bimod 1024 multi_quicksort_seq692937778
	sim-bpred -bpred bimod -bpred:bimod 2048 multi_quicksort_seq692937778
	sim-bpred -bpred 2lev -bpred:2lev 1 512 10 1 multi_quicksort_seq692937778
	sim-bpred -bpred 2lev -bpred:2lev 1 1024 10 1 multi_quicksort_seq692937778
	sim-bpred -bpred 2lev -bpred:2lev 1 2048 10 1 multi_quicksort_seq692937778
	sim-bpred -bpred 2lev -bpred:2lev 1 4096 10 1 multi_quicksort_seq692937778
	sslittle-na-sstrix-gcc -Wall -O3 -funroll-loops -finline-functions  -DRANDOM_SIZE=16384 -DSEED=0 -DSORT=multi_quicksort_seq multi_quicksort_seq1319210165.c simpleMain.c -o multi_quicksort_seq692937778
	sim-cache -cache:dl1 dl1:256:32:1:l -cache:dl2 dl2:131072:32:1:l -cache:il1 il1:256:32:1:l -cache:il2 dl2 multi_quicksort_seq692937778
	sim-cache -cache:dl1 dl1:256:32:1:l -cache:dl2 dl2:65536:32:1:l -cache:il1 il1:256:32:1:l -cache:il2 dl2 multi_quicksort_seq692937778
	sim-cache -cache:dl1 dl1:1:32:256:l -cache:dl2 dl2:1:32:131072:l -cache:il1 il1:1:32:256:l -cache:il2 dl2 multi_quicksort_seq692937778
	sim-cache -cache:dl1 dl1:1:32:256:l -cache:dl2 dl2:1:32:65536:l -cache:il1 il1:1:32:256:l -cache:il2 dl2 multi_quicksort_seq692937778
	sim-bpred -bpred bimod -bpred:bimod 512 multi_quicksort_seq692937778
	sim-bpred -bpred bimod -bpred:bimod 1024 multi_quicksort_seq692937778
	sim-bpred -bpred bimod -bpred:bimod 2048 multi_quicksort_seq692937778
	sim-bpred -bpred 2lev -bpred:2lev 1 512 10 1 multi_quicksort_seq692937778
	sim-bpred -bpred 2lev -bpred:2lev 1 1024 10 1 multi_quicksort_seq692937778
	sim-bpred -bpred 2lev -bpred:2lev 1 2048 10 1 multi_quicksort_seq692937778
	sim-bpred -bpred 2lev -bpred:2lev 1 4096 10 1 multi_quicksort_seq692937778
	sslittle-na-sstrix-gcc -Wall -O3 -funroll-loops -finline-functions  -DRANDOM_SIZE=32768 -DSEED=0 -DSORT=multi_quicksort_seq multi_quicksort_seq1319210165.c simpleMain.c -o multi_quicksort_seq692937778
	sim-cache -cache:dl1 dl1:256:32:1:l -cache:dl2 dl2:131072:32:1:l -cache:il1 il1:256:32:1:l -cache:il2 dl2 multi_quicksort_seq692937778
	sim-cache -cache:dl1 dl1:256:32:1:l -cache:dl2 dl2:65536:32:1:l -cache:il1 il1:256:32:1:l -cache:il2 dl2 multi_quicksort_seq692937778
	sim-cache -cache:dl1 dl1:1:32:256:l -cache:dl2 dl2:1:32:131072:l -cache:il1 il1:1:32:256:l -cache:il2 dl2 multi_quicksort_seq692937778
	sim-cache -cache:dl1 dl1:1:32:256:l -cache:dl2 dl2:1:32:65536:l -cache:il1 il1:1:32:256:l -cache:il2 dl2 multi_quicksort_seq692937778
	sim-bpred -bpred bimod -bpred:bimod 512 multi_quicksort_seq692937778
	sim-bpred -bpred bimod -bpred:bimod 1024 multi_quicksort_seq692937778
	sim-bpred -bpred bimod -bpred:bimod 2048 multi_quicksort_seq692937778
	sim-bpred -bpred 2lev -bpred:2lev 1 512 10 1 multi_quicksort_seq692937778
	sim-bpred -bpred 2lev -bpred:2lev 1 1024 10 1 multi_quicksort_seq692937778
	sim-bpred -bpred 2lev -bpred:2lev 1 2048 10 1 multi_quicksort_seq692937778
	sim-bpred -bpred 2lev -bpred:2lev 1 4096 10 1 multi_quicksort_seq692937778
	sslittle-na-sstrix-gcc -Wall -O3 -funroll-loops -finline-functions  -DRANDOM_SIZE=65536 -DSEED=0 -DSORT=multi_quicksort_seq multi_quicksort_seq1319210165.c simpleMain.c -o multi_quicksort_seq692937778
	sim-cache -cache:dl1 dl1:256:32:1:l -cache:dl2 dl2:131072:32:1:l -cache:il1 il1:256:32:1:l -cache:il2 dl2 multi_quicksort_seq692937778
	sim-cache -cache:dl1 dl1:256:32:1:l -cache:dl2 dl2:65536:32:1:l -cache:il1 il1:256:32:1:l -cache:il2 dl2 multi_quicksort_seq692937778
	sim-cache -cache:dl1 dl1:1:32:256:l -cache:dl2 dl2:1:32:131072:l -cache:il1 il1:1:32:256:l -cache:il2 dl2 multi_quicksort_seq692937778
	sim-cache -cache:dl1 dl1:1:32:256:l -cache:dl2 dl2:1:32:65536:l -cache:il1 il1:1:32:256:l -cache:il2 dl2 multi_quicksort_seq692937778
	sim-bpred -bpred bimod -bpred:bimod 512 multi_quicksort_seq692937778
	sim-bpred -bpred bimod -bpred:bimod 1024 multi_quicksort_seq692937778
	sim-bpred -bpred bimod -bpred:bimod 2048 multi_quicksort_seq692937778
	sim-bpred -bpred 2lev -bpred:2lev 1 512 10 1 multi_quicksort_seq692937778
	sim-bpred -bpred 2lev -bpred:2lev 1 1024 10 1 multi_quicksort_seq692937778
	sim-bpred -bpred 2lev -bpred:2lev 1 2048 10 1 multi_quicksort_seq692937778
	sim-bpred -bpred 2lev -bpred:2lev 1 4096 10 1 multi_quicksort_seq692937778
	sslittle-na-sstrix-gcc -Wall -O3 -funroll-loops -finline-functions  -DRANDOM_SIZE=131072 -DSEED=0 -DSORT=multi_quicksort_seq multi_quicksort_seq1319210165.c simpleMain.c -o multi_quicksort_seq692937778
	sim-cache -cache:dl1 dl1:256:32:1:l -cache:dl2 dl2:131072:32:1:l -cache:il1 il1:256:32:1:l -cache:il2 dl2 multi_quicksort_seq692937778
	sim-cache -cache:dl1 dl1:256:32:1:l -cache:dl2 dl2:65536:32:1:l -cache:il1 il1:256:32:1:l -cache:il2 dl2 multi_quicksort_seq692937778
	sim-cache -cache:dl1 dl1:1:32:256:l -cache:dl2 dl2:1:32:131072:l -cache:il1 il1:1:32:256:l -cache:il2 dl2 multi_quicksort_seq692937778
	sim-cache -cache:dl1 dl1:1:32:256:l -cache:dl2 dl2:1:32:65536:l -cache:il1 il1:1:32:256:l -cache:il2 dl2 multi_quicksort_seq692937778
	sim-bpred -bpred bimod -bpred:bimod 512 multi_quicksort_seq692937778
	sim-bpred -bpred bimod -bpred:bimod 1024 multi_quicksort_seq692937778
	sim-bpred -bpred bimod -bpred:bimod 2048 multi_quicksort_seq692937778
	sim-bpred -bpred 2lev -bpred:2lev 1 512 10 1 multi_quicksort_seq692937778
	sim-bpred -bpred 2lev -bpred:2lev 1 1024 10 1 multi_quicksort_seq692937778
	sim-bpred -bpred 2lev -bpred:2lev 1 2048 10 1 multi_quicksort_seq692937778
	sim-bpred -bpred 2lev -bpred:2lev 1 4096 10 1 multi_quicksort_seq692937778
	sslittle-na-sstrix-gcc -Wall -O3 -funroll-loops -finline-functions  -DRANDOM_SIZE=262144 -DSEED=0 -DSORT=multi_quicksort_seq multi_quicksort_seq1319210165.c simpleMain.c -o multi_quicksort_seq692937778
	sim-cache -cache:dl1 dl1:256:32:1:l -cache:dl2 dl2:131072:32:1:l -cache:il1 il1:256:32:1:l -cache:il2 dl2 multi_quicksort_seq692937778
	sim-cache -cache:dl1 dl1:256:32:1:l -cache:dl2 dl2:65536:32:1:l -cache:il1 il1:256:32:1:l -cache:il2 dl2 multi_quicksort_seq692937778
	sim-cache -cache:dl1 dl1:1:32:256:l -cache:dl2 dl2:1:32:131072:l -cache:il1 il1:1:32:256:l -cache:il2 dl2 multi_quicksort_seq692937778
	sim-cache -cache:dl1 dl1:1:32:256:l -cache:dl2 dl2:1:32:65536:l -cache:il1 il1:1:32:256:l -cache:il2 dl2 multi_quicksort_seq692937778
	sim-bpred -bpred bimod -bpred:bimod 512 multi_quicksort_seq692937778
	sim-bpred -bpred bimod -bpred:bimod 1024 multi_quicksort_seq692937778
	sim-bpred -bpred bimod -bpred:bimod 2048 multi_quicksort_seq692937778
	sim-bpred -bpred 2lev -bpred:2lev 1 512 10 1 multi_quicksort_seq692937778
	sim-bpred -bpred 2lev -bpred:2lev 1 1024 10 1 multi_quicksort_seq692937778
	sim-bpred -bpred 2lev -bpred:2lev 1 2048 10 1 multi_quicksort_seq692937778
	sim-bpred -bpred 2lev -bpred:2lev 1 4096 10 1 multi_quicksort_seq692937778
	sslittle-na-sstrix-gcc -Wall -O3 -funroll-loops -finline-functions  -DRANDOM_SIZE=524288 -DSEED=0 -DSORT=multi_quicksort_seq multi_quicksort_seq1319210165.c simpleMain.c -o multi_quicksort_seq692937778
	sim-cache -cache:dl1 dl1:256:32:1:l -cache:dl2 dl2:131072:32:1:l -cache:il1 il1:256:32:1:l -cache:il2 dl2 multi_quicksort_seq692937778
	sim-cache -cache:dl1 dl1:256:32:1:l -cache:dl2 dl2:65536:32:1:l -cache:il1 il1:256:32:1:l -cache:il2 dl2 multi_quicksort_seq692937778
	sim-cache -cache:dl1 dl1:1:32:256:l -cache:dl2 dl2:1:32:131072:l -cache:il1 il1:1:32:256:l -cache:il2 dl2 multi_quicksort_seq692937778
	sim-cache -cache:dl1 dl1:1:32:256:l -cache:dl2 dl2:1:32:65536:l -cache:il1 il1:1:32:256:l -cache:il2 dl2 multi_quicksort_seq692937778
	sim-bpred -bpred bimod -bpred:bimod 512 multi_quicksort_seq692937778
	sim-bpred -bpred bimod -bpred:bimod 1024 multi_quicksort_seq692937778
	sim-bpred -bpred bimod -bpred:bimod 2048 multi_quicksort_seq692937778
	sim-bpred -bpred 2lev -bpred:2lev 1 512 10 1 multi_quicksort_seq692937778
	sim-bpred -bpred 2lev -bpred:2lev 1 1024 10 1 multi_quicksort_seq692937778
	sim-bpred -bpred 2lev -bpred:2lev 1 2048 10 1 multi_quicksort_seq692937778
	sim-bpred -bpred 2lev -bpred:2lev 1 4096 10 1 multi_quicksort_seq692937778
	sslittle-na-sstrix-gcc -Wall -O3 -funroll-loops -finline-functions  -DRANDOM_SIZE=1048576 -DSEED=0 -DSORT=multi_quicksort_seq multi_quicksort_seq1319210165.c simpleMain.c -o multi_quicksort_seq692937778
	sim-cache -cache:dl1 dl1:256:32:1:l -cache:dl2 dl2:131072:32:1:l -cache:il1 il1:256:32:1:l -cache:il2 dl2 multi_quicksort_seq692937778
	sim-cache -cache:dl1 dl1:256:32:1:l -cache:dl2 dl2:65536:32:1:l -cache:il1 il1:256:32:1:l -cache:il2 dl2 multi_quicksort_seq692937778
	sim-cache -cache:dl1 dl1:1:32:256:l -cache:dl2 dl2:1:32:131072:l -cache:il1 il1:1:32:256:l -cache:il2 dl2 multi_quicksort_seq692937778
	sim-cache -cache:dl1 dl1:1:32:256:l -cache:dl2 dl2:1:32:65536:l -cache:il1 il1:1:32:256:l -cache:il2 dl2 multi_quicksort_seq692937778
	sim-bpred -bpred bimod -bpred:bimod 512 multi_quicksort_seq692937778
	sim-bpred -bpred bimod -bpred:bimod 1024 multi_quicksort_seq692937778
	sim-bpred -bpred bimod -bpred:bimod 2048 multi_quicksort_seq692937778
	sim-bpred -bpred 2lev -bpred:2lev 1 512 10 1 multi_quicksort_seq692937778
	sim-bpred -bpred 2lev -bpred:2lev 1 1024 10 1 multi_quicksort_seq692937778
	sim-bpred -bpred 2lev -bpred:2lev 1 2048 10 1 multi_quicksort_seq692937778
	sim-bpred -bpred 2lev -bpred:2lev 1 4096 10 1 multi_quicksort_seq692937778
	sslittle-na-sstrix-gcc -Wall -O3 -funroll-loops -finline-functions  -DRANDOM_SIZE=2097152 -DSEED=0 -DSORT=multi_quicksort_seq multi_quicksort_seq1319210165.c simpleMain.c -o multi_quicksort_seq692937778
	sim-cache -cache:dl1 dl1:256:32:1:l -cache:dl2 dl2:131072:32:1:l -cache:il1 il1:256:32:1:l -cache:il2 dl2 multi_quicksort_seq692937778
	sim-cache -cache:dl1 dl1:256:32:1:l -cache:dl2 dl2:65536:32:1:l -cache:il1 il1:256:32:1:l -cache:il2 dl2 multi_quicksort_seq692937778
	sim-cache -cache:dl1 dl1:1:32:256:l -cache:dl2 dl2:1:32:131072:l -cache:il1 il1:1:32:256:l -cache:il2 dl2 multi_quicksort_seq692937778
	sim-cache -cache:dl1 dl1:1:32:256:l -cache:dl2 dl2:1:32:65536:l -cache:il1 il1:1:32:256:l -cache:il2 dl2 multi_quicksort_seq692937778
	sim-bpred -bpred bimod -bpred:bimod 512 multi_quicksort_seq692937778
	sim-bpred -bpred bimod -bpred:bimod 1024 multi_quicksort_seq692937778
	sim-bpred -bpred bimod -bpred:bimod 2048 multi_quicksort_seq692937778
	sim-bpred -bpred 2lev -bpred:2lev 1 512 10 1 multi_quicksort_seq692937778
	sim-bpred -bpred 2lev -bpred:2lev 1 1024 10 1 multi_quicksort_seq692937778
	sim-bpred -bpred 2lev -bpred:2lev 1 2048 10 1 multi_quicksort_seq692937778
	sim-bpred -bpred 2lev -bpred:2lev 1 4096 10 1 multi_quicksort_seq692937778
	sslittle-na-sstrix-gcc -Wall -O3 -funroll-loops -finline-functions  -DRANDOM_SIZE=4194304 -DSEED=0 -DSORT=multi_quicksort_seq multi_quicksort_seq1319210165.c simpleMain.c -o multi_quicksort_seq692937778
	sim-cache -cache:dl1 dl1:256:32:1:l -cache:dl2 dl2:131072:32:1:l -cache:il1 il1:256:32:1:l -cache:il2 dl2 multi_quicksort_seq692937778
	sim-cache -cache:dl1 dl1:256:32:1:l -cache:dl2 dl2:65536:32:1:l -cache:il1 il1:256:32:1:l -cache:il2 dl2 multi_quicksort_seq692937778
	sim-cache -cache:dl1 dl1:1:32:256:l -cache:dl2 dl2:1:32:131072:l -cache:il1 il1:1:32:256:l -cache:il2 dl2 multi_quicksort_seq692937778
	sim-cache -cache:dl1 dl1:1:32:256:l -cache:dl2 dl2:1:32:65536:l -cache:il1 il1:1:32:256:l -cache:il2 dl2 multi_quicksort_seq692937778
	sim-bpred -bpred bimod -bpred:bimod 512 multi_quicksort_seq692937778
	sim-bpred -bpred bimod -bpred:bimod 1024 multi_quicksort_seq692937778
	sim-bpred -bpred bimod -bpred:bimod 2048 multi_quicksort_seq692937778
	sim-bpred -bpred 2lev -bpred:2lev 1 512 10 1 multi_quicksort_seq692937778
	sim-bpred -bpred 2lev -bpred:2lev 1 1024 10 1 multi_quicksort_seq692937778
	sim-bpred -bpred 2lev -bpred:2lev 1 2048 10 1 multi_quicksort_seq692937778
	sim-bpred -bpred 2lev -bpred:2lev 1 4096 10 1 multi_quicksort_seq692937778
