Mon Mar 15 19:51:17 2004
Run as: "./simple -c binary search test multi_quicksort"
-------------------------------------------------------------------------------------------------
sim-cache                                     4096 |         4096 |         4096 |         4096 |         8192 |         8192 |         8192 |         8192 |        16384 |        16384 |        16384 |        16384 |        32768 |        32768 |        32768 |        32768 |        65536 |        65536 |        65536 |        65536 |       131072 |       131072 |       131072 |       131072 |       262144 |       262144 |       262144 |       262144 |       524288 |       524288 |       524288 |       524288 |      1048576 |      1048576 |      1048576 |      1048576 |      2097152 |      2097152 |      2097152 |      2097152 |      4194304 |      4194304 |      4194304 |      4194304 |
-cache:dl1 dl1:256:32:1:l -cache:dl2 dl2:131072:32:1:l -cache:il1 il1:256:32:1:l -cache:il2 dl2
-cache:dl1 dl1:256:32:1:l -cache:dl2 dl2:65536:32:1:l -cache:il1 il1:256:32:1:l -cache:il2 dl2
-cache:dl1 dl1:1:32:256:l -cache:dl2 dl2:1:32:131072:l -cache:il1 il1:1:32:256:l -cache:il2 dl2
-cache:dl1 dl1:1:32:256:l -cache:dl2 dl2:1:32:65536:l -cache:il1 il1:1:32:256:l -cache:il2 dl2
-------------------------------------------------------------------------------------------------
sim_num_insn                                644596 |       644596 |       644596 |       644596 |      1354542 |      1354542 |      1354542 |      1354542 |      2817289 |      2817289 |      2817289 |      2817289 |      5888120 |      5888120 |      5888120 |      5888120 |     12371293 |     12371293 |     12371293 |     12371293 |     26236440 |     26236440 |     26236440 |     26236440 |     54160621 |     54160621 |     54160621 |     54160621 |    114615110 |    114615110 |    114615110 |    114615110 |    236737201 |    236737201 |    236737201 |    236737201 |    628201763 |    628201763 |    628201763 |    628201763 |   1247508732 |   1247508732 |   1247508732 |   1247508732 |
sim_num_refs                                197248 |       197248 |       197248 |       197248 |       404070 |       404070 |       404070 |       404070 |       829867 |       829867 |       829867 |       829867 |      1718397 |      1718397 |      1718397 |      1718397 |      3570546 |      3570546 |      3570546 |      3570546 |      7456707 |      7456707 |      7456707 |      7456707 |     15367653 |     15367653 |     15367653 |     15367653 |     32044279 |     32044279 |     32044279 |     32044279 |     66009448 |     66009448 |     66009448 |     66009448 |    166807519 |    166807519 |    166807519 |    166807519 |    333161382 |    333161382 |    333161382 |    333161382 |
sim_elapsed_time                                 1 |            1 |            7 |            4 |            1 |            1 |           10 |            5 |            1 |            1 |           16 |            8 |            2 |            1 |           27 |           14 |            3 |            3 |           49 |           26 |            7 |            7 |           90 |           46 |           14 |           15 |          173 |          124 |           30 |           67 |          851 |          117 |           64 |           64 |          444 |          150 |          169 |          207 |          519 |          264 |          336 |          336 |          693 |          438 |
sim_inst_rate                          644596.0000 |  644596.0000 |   92085.1429 |  161149.0000 | 1354542.0000 | 1354542.0000 |  135454.2000 |  270908.4000 | 2817289.0000 | 2817289.0000 |  176080.5625 |  352161.1250 | 2944060.0000 | 5888120.0000 |  218078.5185 |  420580.0000 | 4123764.3333 | 4123764.3333 |  252475.3673 |  475818.9615 | 3748062.8571 | 3748062.8571 |  291516.0000 |  570357.3913 | 3868615.7857 | 3610708.0667 |  313067.1734 |  436779.2016 | 3820503.6667 | 1710673.2836 |  134682.8555 |  979616.3248 | 3699018.7656 | 3699018.7656 |  533191.8941 | 1578248.0067 | 3717170.1953 | 3034791.1256 | 1210408.0212 | 2379552.1326 | 3712823.6071 | 3712823.6071 | 1800156.9004 | 2848193.4521 |
il1.accesses                                644596 |       644596 |       644596 |       644596 |      1354542 |      1354542 |      1354542 |      1354542 |      2817289 |      2817289 |      2817289 |      2817289 |      5888120 |      5888120 |      5888120 |      5888120 |     12371293 |     12371293 |     12371293 |     12371293 |     26236440 |     26236440 |     26236440 |     26236440 |     54160621 |     54160621 |     54160621 |     54160621 |    114615110 |    114615110 |    114615110 |    114615110 |    236737201 |    236737201 |    236737201 |    236737201 |    628201763 |    628201763 |    628201763 |    628201763 |   1247508732 |   1247508732 |   1247508732 |   1247508732 |
il1.hits                                    644064 |       644064 |       644149 |       644149 |      1354008 |      1354008 |      1354094 |      1354094 |      2816740 |      2816740 |      2816814 |      2816814 |      5887572 |      5887572 |      5887644 |      5887644 |     12370745 |     12370745 |     12370817 |     12370817 |     26235892 |     26235892 |     26235964 |     26235964 |     54160073 |     54160073 |     54160145 |     54160145 |    114614562 |    114614562 |    114614634 |    114614634 |    236736653 |    236736653 |    236736725 |    236736725 |    628200966 |    628200966 |    628201107 |    628201107 |   1247507935 |   1247507935 |   1247508076 |   1247508076 |
il1.misses                                     532 |          532 |          447 |          447 |          534 |          534 |          448 |          448 |          549 |          549 |          475 |          475 |          548 |          548 |          476 |          476 |          548 |          548 |          476 |          476 |          548 |          548 |          476 |          476 |          548 |          548 |          476 |          476 |          548 |          548 |          476 |          476 |          548 |          548 |          476 |          476 |          797 |          797 |          656 |          656 |          797 |          797 |          656 |          656 |
il1.replacements                               302 |          302 |          191 |          191 |          304 |          304 |          192 |          192 |          319 |          319 |          219 |          219 |          318 |          318 |          220 |          220 |          318 |          318 |          220 |          220 |          318 |          318 |          220 |          220 |          318 |          318 |          220 |          220 |          318 |          318 |          220 |          220 |          318 |          318 |          220 |          220 |          542 |          542 |          400 |          400 |          542 |          542 |          400 |          400 |
il1.writebacks                                   0 |            0 |            0 |            0 |            0 |            0 |            0 |            0 |            0 |            0 |            0 |            0 |            0 |            0 |            0 |            0 |            0 |            0 |            0 |            0 |            0 |            0 |            0 |            0 |            0 |            0 |            0 |            0 |            0 |            0 |            0 |            0 |            0 |            0 |            0 |            0 |            0 |            0 |            0 |            0 |            0 |            0 |            0 |            0 |
il1.invalidations                                0 |            0 |            0 |            0 |            0 |            0 |            0 |            0 |            0 |            0 |            0 |            0 |            0 |            0 |            0 |            0 |            0 |            0 |            0 |            0 |            0 |            0 |            0 |            0 |            0 |            0 |            0 |            0 |            0 |            0 |            0 |            0 |            0 |            0 |            0 |            0 |            0 |            0 |            0 |            0 |            0 |            0 |            0 |            0 |
il1.miss_rate                               0.0008 |       0.0008 |       0.0007 |       0.0007 |       0.0004 |       0.0004 |       0.0003 |       0.0003 |       0.0002 |       0.0002 |       0.0002 |       0.0002 |       0.0001 |       0.0001 |       0.0001 |       0.0001 |       0.0000 |       0.0000 |       0.0000 |       0.0000 |       0.0000 |       0.0000 |       0.0000 |       0.0000 |       0.0000 |       0.0000 |       0.0000 |       0.0000 |       0.0000 |       0.0000 |       0.0000 |       0.0000 |       0.0000 |       0.0000 |       0.0000 |       0.0000 |       0.0000 |       0.0000 |       0.0000 |       0.0000 |       0.0000 |       0.0000 |       0.0000 |       0.0000 |
il1.repl_rate                               0.0005 |       0.0005 |       0.0003 |       0.0003 |       0.0002 |       0.0002 |       0.0001 |       0.0001 |       0.0001 |       0.0001 |       0.0001 |       0.0001 |       0.0001 |       0.0001 |       0.0000 |       0.0000 |       0.0000 |       0.0000 |       0.0000 |       0.0000 |       0.0000 |       0.0000 |       0.0000 |       0.0000 |       0.0000 |       0.0000 |       0.0000 |       0.0000 |       0.0000 |       0.0000 |       0.0000 |       0.0000 |       0.0000 |       0.0000 |       0.0000 |       0.0000 |       0.0000 |       0.0000 |       0.0000 |       0.0000 |       0.0000 |       0.0000 |       0.0000 |       0.0000 |
il1.wb_rate                                 0.0000 |       0.0000 |       0.0000 |       0.0000 |       0.0000 |       0.0000 |       0.0000 |       0.0000 |       0.0000 |       0.0000 |       0.0000 |       0.0000 |       0.0000 |       0.0000 |       0.0000 |       0.0000 |       0.0000 |       0.0000 |       0.0000 |       0.0000 |       0.0000 |       0.0000 |       0.0000 |       0.0000 |       0.0000 |       0.0000 |       0.0000 |       0.0000 |       0.0000 |       0.0000 |       0.0000 |       0.0000 |       0.0000 |       0.0000 |       0.0000 |       0.0000 |       0.0000 |       0.0000 |       0.0000 |       0.0000 |       0.0000 |       0.0000 |       0.0000 |       0.0000 |
il1.inv_rate                                0.0000 |       0.0000 |       0.0000 |       0.0000 |       0.0000 |       0.0000 |       0.0000 |       0.0000 |       0.0000 |       0.0000 |       0.0000 |       0.0000 |       0.0000 |       0.0000 |       0.0000 |       0.0000 |       0.0000 |       0.0000 |       0.0000 |       0.0000 |       0.0000 |       0.0000 |       0.0000 |       0.0000 |       0.0000 |       0.0000 |       0.0000 |       0.0000 |       0.0000 |       0.0000 |       0.0000 |       0.0000 |       0.0000 |       0.0000 |       0.0000 |       0.0000 |       0.0000 |       0.0000 |       0.0000 |       0.0000 |       0.0000 |       0.0000 |       0.0000 |       0.0000 |
dl1.accesses                                197318 |       197318 |       197318 |       197318 |       404140 |       404140 |       404140 |       404140 |       829937 |       829937 |       829937 |       829937 |      1718467 |      1718467 |      1718467 |      1718467 |      3570616 |      3570616 |      3570616 |      3570616 |      7456777 |      7456777 |      7456777 |      7456777 |     15367723 |     15367723 |     15367723 |     15367723 |     32044349 |     32044349 |     32044349 |     32044349 |     66009518 |     66009518 |     66009518 |     66009518 |    166807590 |    166807590 |    166807590 |    166807590 |    333161453 |    333161453 |    333161453 |    333161453 |
dl1.hits                                    194955 |       194955 |       194969 |       194969 |       398416 |       398416 |       398645 |       398645 |       817191 |       817191 |       817561 |       817561 |      1690064 |      1690064 |      1691106 |      1691106 |      3503759 |      3503759 |      3506379 |      3506379 |      7296530 |      7296530 |      7301735 |      7301735 |     15022338 |     15022338 |     15034226 |     15034226 |     31244729 |     31244729 |     31268747 |     31268747 |     64306425 |     64306425 |     64358251 |     64358251 |    161501120 |    161501120 |    162998770 |    162998770 |    322219272 |    322219272 |    325550859 |    325550859 |
dl1.misses                                    2363 |         2363 |         2349 |         2349 |         5724 |         5724 |         5495 |         5495 |        12746 |        12746 |        12376 |        12376 |        28403 |        28403 |        27361 |        27361 |        66857 |        66857 |        64237 |        64237 |       160247 |       160247 |       155042 |       155042 |       345385 |       345385 |       333497 |       333497 |       799620 |       799620 |       775602 |       775602 |      1703093 |      1703093 |      1651267 |      1651267 |      5306470 |      5306470 |      3808820 |      3808820 |     10942181 |     10942181 |      7610594 |      7610594 |
dl1.replacements                              2107 |         2107 |         2093 |         2093 |         5468 |         5468 |         5239 |         5239 |        12490 |        12490 |        12120 |        12120 |        28147 |        28147 |        27105 |        27105 |        66601 |        66601 |        63981 |        63981 |       159991 |       159991 |       154786 |       154786 |       345129 |       345129 |       333241 |       333241 |       799364 |       799364 |       775346 |       775346 |      1702837 |      1702837 |      1651011 |      1651011 |      5306214 |      5306214 |      3808564 |      3808564 |     10941925 |     10941925 |      7610338 |      7610338 |
dl1.writebacks                                1999 |         1999 |         1946 |         1946 |         4967 |         4967 |         4780 |         4780 |        11790 |        11790 |        11543 |        11543 |        26909 |        26909 |        26123 |        26123 |        62907 |        62907 |        60991 |        60991 |       145164 |       145164 |       141675 |       141675 |       321939 |       321939 |       314031 |       314031 |       723416 |       723416 |       708171 |       708171 |      1576622 |      1576622 |      1544042 |      1544042 |      4314390 |      4314390 |      3098870 |      3098870 |      8966178 |      8966178 |      6208372 |      6208372 |
dl1.invalidations                                0 |            0 |            0 |            0 |            0 |            0 |            0 |            0 |            0 |            0 |            0 |            0 |            0 |            0 |            0 |            0 |            0 |            0 |            0 |            0 |            0 |            0 |            0 |            0 |            0 |            0 |            0 |            0 |            0 |            0 |            0 |            0 |            0 |            0 |            0 |            0 |            0 |            0 |            0 |            0 |            0 |            0 |            0 |            0 |
dl1.miss_rate                               0.0120 |       0.0120 |       0.0119 |       0.0119 |       0.0142 |       0.0142 |       0.0136 |       0.0136 |       0.0154 |       0.0154 |       0.0149 |       0.0149 |       0.0165 |       0.0165 |       0.0159 |       0.0159 |       0.0187 |       0.0187 |       0.0180 |       0.0180 |       0.0215 |       0.0215 |       0.0208 |       0.0208 |       0.0225 |       0.0225 |       0.0217 |       0.0217 |       0.0250 |       0.0250 |       0.0242 |       0.0242 |       0.0258 |       0.0258 |       0.0250 |       0.0250 |       0.0318 |       0.0318 |       0.0228 |       0.0228 |       0.0328 |       0.0328 |       0.0228 |       0.0228 |
dl1.repl_rate                               0.0107 |       0.0107 |       0.0106 |       0.0106 |       0.0135 |       0.0135 |       0.0130 |       0.0130 |       0.0150 |       0.0150 |       0.0146 |       0.0146 |       0.0164 |       0.0164 |       0.0158 |       0.0158 |       0.0187 |       0.0187 |       0.0179 |       0.0179 |       0.0215 |       0.0215 |       0.0208 |       0.0208 |       0.0225 |       0.0225 |       0.0217 |       0.0217 |       0.0249 |       0.0249 |       0.0242 |       0.0242 |       0.0258 |       0.0258 |       0.0250 |       0.0250 |       0.0318 |       0.0318 |       0.0228 |       0.0228 |       0.0328 |       0.0328 |       0.0228 |       0.0228 |
dl1.wb_rate                                 0.0101 |       0.0101 |       0.0099 |       0.0099 |       0.0123 |       0.0123 |       0.0118 |       0.0118 |       0.0142 |       0.0142 |       0.0139 |       0.0139 |       0.0157 |       0.0157 |       0.0152 |       0.0152 |       0.0176 |       0.0176 |       0.0171 |       0.0171 |       0.0195 |       0.0195 |       0.0190 |       0.0190 |       0.0209 |       0.0209 |       0.0204 |       0.0204 |       0.0226 |       0.0226 |       0.0221 |       0.0221 |       0.0239 |       0.0239 |       0.0234 |       0.0234 |       0.0259 |       0.0259 |       0.0186 |       0.0186 |       0.0269 |       0.0269 |       0.0186 |       0.0186 |
dl1.inv_rate                                0.0000 |       0.0000 |       0.0000 |       0.0000 |       0.0000 |       0.0000 |       0.0000 |       0.0000 |       0.0000 |       0.0000 |       0.0000 |       0.0000 |       0.0000 |       0.0000 |       0.0000 |       0.0000 |       0.0000 |       0.0000 |       0.0000 |       0.0000 |       0.0000 |       0.0000 |       0.0000 |       0.0000 |       0.0000 |       0.0000 |       0.0000 |       0.0000 |       0.0000 |       0.0000 |       0.0000 |       0.0000 |       0.0000 |       0.0000 |       0.0000 |       0.0000 |       0.0000 |       0.0000 |       0.0000 |       0.0000 |       0.0000 |       0.0000 |       0.0000 |       0.0000 |
dl2.accesses                                  4894 |         4894 |         4742 |         4742 |        11225 |        11225 |        10723 |        10723 |        25085 |        25085 |        24394 |        24394 |        55860 |        55860 |        53960 |        53960 |       130312 |       130312 |       125704 |       125704 |       305959 |       305959 |       297193 |       297193 |       667872 |       667872 |       648004 |       648004 |      1523584 |      1523584 |      1484249 |      1484249 |      3280263 |      3280263 |      3195785 |      3195785 |      9621657 |      9621657 |      6908346 |      6908346 |     19909156 |     19909156 |     13819622 |     13819622 |
dl2.hits                                      3439 |         3439 |         3341 |         3341 |         9257 |         9257 |         8809 |         8809 |        22099 |        22099 |        21461 |        21461 |        50824 |        50824 |        48977 |        48977 |       121180 |       121180 |       116625 |       116625 |       288635 |       288635 |       279922 |       279922 |       634164 |       634164 |       614349 |       614349 |      1457107 |      1456346 |      1417825 |      1362026 |      3147501 |      2935590 |      2947229 |      2796487 |      8126149 |      8069627 |      5402602 |      5340164 |     16834574 |     16707995 |     10737971 |     10540071 |
dl2.misses                                    1455 |         1455 |         1401 |         1401 |         1968 |         1968 |         1914 |         1914 |         2986 |         2986 |         2933 |         2933 |         5036 |         5036 |         4983 |         4983 |         9132 |         9132 |         9079 |         9079 |        17324 |        17324 |        17271 |        17271 |        33708 |        33708 |        33655 |        33655 |        66477 |        67238 |        66424 |       122223 |       132762 |       344673 |       248556 |       399298 |      1495508 |      1552030 |      1505744 |      1568182 |      3074582 |      3201161 |      3081651 |      3279551 |
dl2.replacements                               351 |          351 |            0 |            0 |          350 |          350 |            0 |            0 |          347 |          347 |            0 |            0 |          348 |          348 |            0 |            0 |          348 |          348 |            0 |            0 |          348 |          348 |            0 |            0 |          348 |          348 |            0 |            0 |          349 |         1702 |            0 |        56687 |         1690 |       279137 |       117484 |       333762 |      1364436 |      1486494 |      1374672 |      1502646 |      2943510 |      3135625 |      2950579 |      3214015 |
dl2.writebacks                                 192 |          192 |            0 |            0 |          192 |          192 |            0 |            0 |          189 |          189 |            0 |            0 |          191 |          191 |            0 |            0 |          191 |          191 |            0 |            0 |          191 |          191 |            0 |            0 |          191 |          191 |            0 |            0 |          192 |         1377 |            0 |        56419 |         1367 |       275127 |       117216 |       326108 |       844299 |       961578 |       861811 |       979419 |      1895032 |      2081911 |      1907946 |      2160688 |
dl2.invalidations                                0 |            0 |            0 |            0 |            0 |            0 |            0 |            0 |            0 |            0 |            0 |            0 |            0 |            0 |            0 |            0 |            0 |            0 |            0 |            0 |            0 |            0 |            0 |            0 |            0 |            0 |            0 |            0 |            0 |            0 |            0 |            0 |            0 |            0 |            0 |            0 |            0 |            0 |            0 |            0 |            0 |            0 |            0 |            0 |
dl2.miss_rate                               0.2973 |       0.2973 |       0.2954 |       0.2954 |       0.1753 |       0.1753 |       0.1785 |       0.1785 |       0.1190 |       0.1190 |       0.1202 |       0.1202 |       0.0902 |       0.0902 |       0.0923 |       0.0923 |       0.0701 |       0.0701 |       0.0722 |       0.0722 |       0.0566 |       0.0566 |       0.0581 |       0.0581 |       0.0505 |       0.0505 |       0.0519 |       0.0519 |       0.0436 |       0.0441 |       0.0448 |       0.0823 |       0.0405 |       0.1051 |       0.0778 |       0.1249 |       0.1554 |       0.1613 |       0.2180 |       0.2270 |       0.1544 |       0.1608 |       0.2230 |       0.2373 |
dl2.repl_rate                               0.0717 |       0.0717 |       0.0000 |       0.0000 |       0.0312 |       0.0312 |       0.0000 |       0.0000 |       0.0138 |       0.0138 |       0.0000 |       0.0000 |       0.0062 |       0.0062 |       0.0000 |       0.0000 |       0.0027 |       0.0027 |       0.0000 |       0.0000 |       0.0011 |       0.0011 |       0.0000 |       0.0000 |       0.0005 |       0.0005 |       0.0000 |       0.0000 |       0.0002 |       0.0011 |       0.0000 |       0.0382 |       0.0005 |       0.0851 |       0.0368 |       0.1044 |       0.1418 |       0.1545 |       0.1990 |       0.2175 |       0.1478 |       0.1575 |       0.2135 |       0.2326 |
dl2.wb_rate                                 0.0392 |       0.0392 |       0.0000 |       0.0000 |       0.0171 |       0.0171 |       0.0000 |       0.0000 |       0.0075 |       0.0075 |       0.0000 |       0.0000 |       0.0034 |       0.0034 |       0.0000 |       0.0000 |       0.0015 |       0.0015 |       0.0000 |       0.0000 |       0.0006 |       0.0006 |       0.0000 |       0.0000 |       0.0003 |       0.0003 |       0.0000 |       0.0000 |       0.0001 |       0.0009 |       0.0000 |       0.0380 |       0.0004 |       0.0839 |       0.0367 |       0.1020 |       0.0877 |       0.0999 |       0.1247 |       0.1418 |       0.0952 |       0.1046 |       0.1381 |       0.1563 |
dl2.inv_rate                                0.0000 |       0.0000 |       0.0000 |       0.0000 |       0.0000 |       0.0000 |       0.0000 |       0.0000 |       0.0000 |       0.0000 |       0.0000 |       0.0000 |       0.0000 |       0.0000 |       0.0000 |       0.0000 |       0.0000 |       0.0000 |       0.0000 |       0.0000 |       0.0000 |       0.0000 |       0.0000 |       0.0000 |       0.0000 |       0.0000 |       0.0000 |       0.0000 |       0.0000 |       0.0000 |       0.0000 |       0.0000 |       0.0000 |       0.0000 |       0.0000 |       0.0000 |       0.0000 |       0.0000 |       0.0000 |       0.0000 |       0.0000 |       0.0000 |       0.0000 |       0.0000 |
itlb.accesses                               644596 |       644596 |       644596 |       644596 |      1354542 |      1354542 |      1354542 |      1354542 |      2817289 |      2817289 |      2817289 |      2817289 |      5888120 |      5888120 |      5888120 |      5888120 |     12371293 |     12371293 |     12371293 |     12371293 |     26236440 |     26236440 |     26236440 |     26236440 |     54160621 |     54160621 |     54160621 |     54160621 |    114615110 |    114615110 |    114615110 |    114615110 |    236737201 |    236737201 |    236737201 |    236737201 |    628201763 |    628201763 |    628201763 |    628201763 |   1247508732 |   1247508732 |   1247508732 |   1247508732 |
itlb.hits                                   644588 |       644588 |       644588 |       644588 |      1354534 |      1354534 |      1354534 |      1354534 |      2817281 |      2817281 |      2817281 |      2817281 |      5888112 |      5888112 |      5888112 |      5888112 |     12371285 |     12371285 |     12371285 |     12371285 |     26236432 |     26236432 |     26236432 |     26236432 |     54160613 |     54160613 |     54160613 |     54160613 |    114615102 |    114615102 |    114615102 |    114615102 |    236737193 |    236737193 |    236737193 |    236737193 |    628201755 |    628201755 |    628201755 |    628201755 |   1247508724 |   1247508724 |   1247508724 |   1247508724 |
itlb.misses                                      8 |            8 |            8 |            8 |            8 |            8 |            8 |            8 |            8 |            8 |            8 |            8 |            8 |            8 |            8 |            8 |            8 |            8 |            8 |            8 |            8 |            8 |            8 |            8 |            8 |            8 |            8 |            8 |            8 |            8 |            8 |            8 |            8 |            8 |            8 |            8 |            8 |            8 |            8 |            8 |            8 |            8 |            8 |            8 |
itlb.replacements                                0 |            0 |            0 |            0 |            0 |            0 |            0 |            0 |            0 |            0 |            0 |            0 |            0 |            0 |            0 |            0 |            0 |            0 |            0 |            0 |            0 |            0 |            0 |            0 |            0 |            0 |            0 |            0 |            0 |            0 |            0 |            0 |            0 |            0 |            0 |            0 |            0 |            0 |            0 |            0 |            0 |            0 |            0 |            0 |
itlb.writebacks                                  0 |            0 |            0 |            0 |            0 |            0 |            0 |            0 |            0 |            0 |            0 |            0 |            0 |            0 |            0 |            0 |            0 |            0 |            0 |            0 |            0 |            0 |            0 |            0 |            0 |            0 |            0 |            0 |            0 |            0 |            0 |            0 |            0 |            0 |            0 |            0 |            0 |            0 |            0 |            0 |            0 |            0 |            0 |            0 |
itlb.invalidations                               0 |            0 |            0 |            0 |            0 |            0 |            0 |            0 |            0 |            0 |            0 |            0 |            0 |            0 |            0 |            0 |            0 |            0 |            0 |            0 |            0 |            0 |            0 |            0 |            0 |            0 |            0 |            0 |            0 |            0 |            0 |            0 |            0 |            0 |            0 |            0 |            0 |            0 |            0 |            0 |            0 |            0 |            0 |            0 |
itlb.miss_rate                              0.0000 |       0.0000 |       0.0000 |       0.0000 |       0.0000 |       0.0000 |       0.0000 |       0.0000 |       0.0000 |       0.0000 |       0.0000 |       0.0000 |       0.0000 |       0.0000 |       0.0000 |       0.0000 |       0.0000 |       0.0000 |       0.0000 |       0.0000 |       0.0000 |       0.0000 |       0.0000 |       0.0000 |       0.0000 |       0.0000 |       0.0000 |       0.0000 |       0.0000 |       0.0000 |       0.0000 |       0.0000 |       0.0000 |       0.0000 |       0.0000 |       0.0000 |       0.0000 |       0.0000 |       0.0000 |       0.0000 |       0.0000 |       0.0000 |       0.0000 |       0.0000 |
itlb.repl_rate                              0.0000 |       0.0000 |       0.0000 |       0.0000 |       0.0000 |       0.0000 |       0.0000 |       0.0000 |       0.0000 |       0.0000 |       0.0000 |       0.0000 |       0.0000 |       0.0000 |       0.0000 |       0.0000 |       0.0000 |       0.0000 |       0.0000 |       0.0000 |       0.0000 |       0.0000 |       0.0000 |       0.0000 |       0.0000 |       0.0000 |       0.0000 |       0.0000 |       0.0000 |       0.0000 |       0.0000 |       0.0000 |       0.0000 |       0.0000 |       0.0000 |       0.0000 |       0.0000 |       0.0000 |       0.0000 |       0.0000 |       0.0000 |       0.0000 |       0.0000 |       0.0000 |
itlb.wb_rate                                0.0000 |       0.0000 |       0.0000 |       0.0000 |       0.0000 |       0.0000 |       0.0000 |       0.0000 |       0.0000 |       0.0000 |       0.0000 |       0.0000 |       0.0000 |       0.0000 |       0.0000 |       0.0000 |       0.0000 |       0.0000 |       0.0000 |       0.0000 |       0.0000 |       0.0000 |       0.0000 |       0.0000 |       0.0000 |       0.0000 |       0.0000 |       0.0000 |       0.0000 |       0.0000 |       0.0000 |       0.0000 |       0.0000 |       0.0000 |       0.0000 |       0.0000 |       0.0000 |       0.0000 |       0.0000 |       0.0000 |       0.0000 |       0.0000 |       0.0000 |       0.0000 |
itlb.inv_rate                               0.0000 |       0.0000 |       0.0000 |       0.0000 |       0.0000 |       0.0000 |       0.0000 |       0.0000 |       0.0000 |       0.0000 |       0.0000 |       0.0000 |       0.0000 |       0.0000 |       0.0000 |       0.0000 |       0.0000 |       0.0000 |       0.0000 |       0.0000 |       0.0000 |       0.0000 |       0.0000 |       0.0000 |       0.0000 |       0.0000 |       0.0000 |       0.0000 |       0.0000 |       0.0000 |       0.0000 |       0.0000 |       0.0000 |       0.0000 |       0.0000 |       0.0000 |       0.0000 |       0.0000 |       0.0000 |       0.0000 |       0.0000 |       0.0000 |       0.0000 |       0.0000 |
dtlb.accesses                               197318 |       197318 |       197318 |       197318 |       404140 |       404140 |       404140 |       404140 |       829937 |       829937 |       829937 |       829937 |      1718467 |      1718467 |      1718467 |      1718467 |      3570616 |      3570616 |      3570616 |      3570616 |      7456777 |      7456777 |      7456777 |      7456777 |     15367723 |     15367723 |     15367723 |     15367723 |     32044349 |     32044349 |     32044349 |     32044349 |     66009518 |     66009518 |     66009518 |     66009518 |    166807590 |    166807590 |    166807590 |    166807590 |    333161453 |    333161453 |    333161453 |    333161453 |
dtlb.hits                                   197307 |       197307 |       197307 |       197307 |       404125 |       404125 |       404125 |       404125 |       829914 |       829914 |       829914 |       829914 |      1718428 |      1718428 |      1718428 |      1718428 |      3570545 |      3570545 |      3570545 |      3570545 |      7456617 |      7456617 |      7456617 |      7456617 |     15366970 |     15366970 |     15366970 |     15366970 |     32042074 |     32042074 |     32042074 |     32042074 |     66003947 |     66003947 |     66003947 |     66003947 |    166790089 |    166790089 |    166790089 |    166790089 |    333067946 |    333067946 |    333067946 |    333067946 |
dtlb.misses                                     11 |           11 |           11 |           11 |           15 |           15 |           15 |           15 |           23 |           23 |           23 |           23 |           39 |           39 |           39 |           39 |           71 |           71 |           71 |           71 |          160 |          160 |          160 |          160 |          753 |          753 |          753 |          753 |         2275 |         2275 |         2275 |         2275 |         5571 |         5571 |         5571 |         5571 |        17501 |        17501 |        17501 |        17501 |        93507 |        93507 |        93507 |        93507 |
dtlb.replacements                                0 |            0 |            0 |            0 |            0 |            0 |            0 |            0 |            0 |            0 |            0 |            0 |            0 |            0 |            0 |            0 |            0 |            0 |            0 |            0 |           32 |           32 |           32 |           32 |          625 |          625 |          625 |          625 |         2147 |         2147 |         2147 |         2147 |         5443 |         5443 |         5443 |         5443 |        17373 |        17373 |        17373 |        17373 |        93379 |        93379 |        93379 |        93379 |
dtlb.writebacks                                  0 |            0 |            0 |            0 |            0 |            0 |            0 |            0 |            0 |            0 |            0 |            0 |            0 |            0 |            0 |            0 |            0 |            0 |            0 |            0 |           31 |           31 |           31 |           31 |          624 |          624 |          624 |          624 |         2146 |         2146 |         2146 |         2146 |         5442 |         5442 |         5442 |         5442 |        13268 |        13268 |        13268 |        13268 |        85127 |        85127 |        85127 |        85127 |
dtlb.invalidations                               0 |            0 |            0 |            0 |            0 |            0 |            0 |            0 |            0 |            0 |            0 |            0 |            0 |            0 |            0 |            0 |            0 |            0 |            0 |            0 |            0 |            0 |            0 |            0 |            0 |            0 |            0 |            0 |            0 |            0 |            0 |            0 |            0 |            0 |            0 |            0 |            0 |            0 |            0 |            0 |            0 |            0 |            0 |            0 |
dtlb.miss_rate                              0.0001 |       0.0001 |       0.0001 |       0.0001 |       0.0000 |       0.0000 |       0.0000 |       0.0000 |       0.0000 |       0.0000 |       0.0000 |       0.0000 |       0.0000 |       0.0000 |       0.0000 |       0.0000 |       0.0000 |       0.0000 |       0.0000 |       0.0000 |       0.0000 |       0.0000 |       0.0000 |       0.0000 |       0.0000 |       0.0000 |       0.0000 |       0.0000 |       0.0001 |       0.0001 |       0.0001 |       0.0001 |       0.0001 |       0.0001 |       0.0001 |       0.0001 |       0.0001 |       0.0001 |       0.0001 |       0.0001 |       0.0003 |       0.0003 |       0.0003 |       0.0003 |
dtlb.repl_rate                              0.0000 |       0.0000 |       0.0000 |       0.0000 |       0.0000 |       0.0000 |       0.0000 |       0.0000 |       0.0000 |       0.0000 |       0.0000 |       0.0000 |       0.0000 |       0.0000 |       0.0000 |       0.0000 |       0.0000 |       0.0000 |       0.0000 |       0.0000 |       0.0000 |       0.0000 |       0.0000 |       0.0000 |       0.0000 |       0.0000 |       0.0000 |       0.0000 |       0.0001 |       0.0001 |       0.0001 |       0.0001 |       0.0001 |       0.0001 |       0.0001 |       0.0001 |       0.0001 |       0.0001 |       0.0001 |       0.0001 |       0.0003 |       0.0003 |       0.0003 |       0.0003 |
dtlb.wb_rate                                0.0000 |       0.0000 |       0.0000 |       0.0000 |       0.0000 |       0.0000 |       0.0000 |       0.0000 |       0.0000 |       0.0000 |       0.0000 |       0.0000 |       0.0000 |       0.0000 |       0.0000 |       0.0000 |       0.0000 |       0.0000 |       0.0000 |       0.0000 |       0.0000 |       0.0000 |       0.0000 |       0.0000 |       0.0000 |       0.0000 |       0.0000 |       0.0000 |       0.0001 |       0.0001 |       0.0001 |       0.0001 |       0.0001 |       0.0001 |       0.0001 |       0.0001 |       0.0001 |       0.0001 |       0.0001 |       0.0001 |       0.0003 |       0.0003 |       0.0003 |       0.0003 |
dtlb.inv_rate                               0.0000 |       0.0000 |       0.0000 |       0.0000 |       0.0000 |       0.0000 |       0.0000 |       0.0000 |       0.0000 |       0.0000 |       0.0000 |       0.0000 |       0.0000 |       0.0000 |       0.0000 |       0.0000 |       0.0000 |       0.0000 |       0.0000 |       0.0000 |       0.0000 |       0.0000 |       0.0000 |       0.0000 |       0.0000 |       0.0000 |       0.0000 |       0.0000 |       0.0000 |       0.0000 |       0.0000 |       0.0000 |       0.0000 |       0.0000 |       0.0000 |       0.0000 |       0.0000 |       0.0000 |       0.0000 |       0.0000 |       0.0000 |       0.0000 |       0.0000 |       0.0000 |
ld_text_base                            0x00400000 |   0x00400000 |   0x00400000 |   0x00400000 |   0x00400000 |   0x00400000 |   0x00400000 |   0x00400000 |   0x00400000 |   0x00400000 |   0x00400000 |   0x00400000 |   0x00400000 |   0x00400000 |   0x00400000 |   0x00400000 |   0x00400000 |   0x00400000 |   0x00400000 |   0x00400000 |   0x00400000 |   0x00400000 |   0x00400000 |   0x00400000 |   0x00400000 |   0x00400000 |   0x00400000 |   0x00400000 |   0x00400000 |   0x00400000 |   0x00400000 |   0x00400000 |   0x00400000 |   0x00400000 |   0x00400000 |   0x00400000 |   0x00400000 |   0x00400000 |   0x00400000 |   0x00400000 |   0x00400000 |   0x00400000 |   0x00400000 |   0x00400000 |
ld_text_size                                 32400 |        32400 |        32400 |        32400 |        32432 |        32432 |        32432 |        32432 |        32448 |        32448 |        32448 |        32448 |        32480 |        32480 |        32480 |        32480 |        32480 |        32480 |        32480 |        32480 |        32480 |        32480 |        32480 |        32480 |        32480 |        32480 |        32480 |        32480 |        32480 |        32480 |        32480 |        32480 |        32480 |        32480 |        32480 |        32480 |        32480 |        32480 |        32480 |        32480 |        32480 |        32480 |        32480 |        32480 |
ld_data_base                            0x10000000 |   0x10000000 |   0x10000000 |   0x10000000 |   0x10000000 |   0x10000000 |   0x10000000 |   0x10000000 |   0x10000000 |   0x10000000 |   0x10000000 |   0x10000000 |   0x10000000 |   0x10000000 |   0x10000000 |   0x10000000 |   0x10000000 |   0x10000000 |   0x10000000 |   0x10000000 |   0x10000000 |   0x10000000 |   0x10000000 |   0x10000000 |   0x10000000 |   0x10000000 |   0x10000000 |   0x10000000 |   0x10000000 |   0x10000000 |   0x10000000 |   0x10000000 |   0x10000000 |   0x10000000 |   0x10000000 |   0x10000000 |   0x10000000 |   0x10000000 |   0x10000000 |   0x10000000 |   0x10000000 |   0x10000000 |   0x10000000 |   0x10000000 |
ld_data_size                                  4096 |         4096 |         4096 |         4096 |         4096 |         4096 |         4096 |         4096 |         4096 |         4096 |         4096 |         4096 |         4096 |         4096 |         4096 |         4096 |         4096 |         4096 |         4096 |         4096 |         4096 |         4096 |         4096 |         4096 |         4096 |         4096 |         4096 |         4096 |         4096 |         4096 |         4096 |         4096 |         4096 |         4096 |         4096 |         4096 |         4096 |         4096 |         4096 |         4096 |         4096 |         4096 |         4096 |         4096 |
ld_stack_base                           0x7fffc000 |   0x7fffc000 |   0x7fffc000 |   0x7fffc000 |   0x7fffc000 |   0x7fffc000 |   0x7fffc000 |   0x7fffc000 |   0x7fffc000 |   0x7fffc000 |   0x7fffc000 |   0x7fffc000 |   0x7fffc000 |   0x7fffc000 |   0x7fffc000 |   0x7fffc000 |   0x7fffc000 |   0x7fffc000 |   0x7fffc000 |   0x7fffc000 |   0x7fffc000 |   0x7fffc000 |   0x7fffc000 |   0x7fffc000 |   0x7fffc000 |   0x7fffc000 |   0x7fffc000 |   0x7fffc000 |   0x7fffc000 |   0x7fffc000 |   0x7fffc000 |   0x7fffc000 |   0x7fffc000 |   0x7fffc000 |   0x7fffc000 |   0x7fffc000 |   0x7fffc000 |   0x7fffc000 |   0x7fffc000 |   0x7fffc000 |   0x7fffc000 |   0x7fffc000 |   0x7fffc000 |   0x7fffc000 |
ld_stack_size                                16384 |        16384 |        16384 |        16384 |        16384 |        16384 |        16384 |        16384 |        16384 |        16384 |        16384 |        16384 |        16384 |        16384 |        16384 |        16384 |        16384 |        16384 |        16384 |        16384 |        16384 |        16384 |        16384 |        16384 |        16384 |        16384 |        16384 |        16384 |        16384 |        16384 |        16384 |        16384 |        16384 |        16384 |        16384 |        16384 |        16384 |        16384 |        16384 |        16384 |        16384 |        16384 |        16384 |        16384 |
ld_prog_entry                           0x00400140 |   0x00400140 |   0x00400140 |   0x00400140 |   0x00400140 |   0x00400140 |   0x00400140 |   0x00400140 |   0x00400140 |   0x00400140 |   0x00400140 |   0x00400140 |   0x00400140 |   0x00400140 |   0x00400140 |   0x00400140 |   0x00400140 |   0x00400140 |   0x00400140 |   0x00400140 |   0x00400140 |   0x00400140 |   0x00400140 |   0x00400140 |   0x00400140 |   0x00400140 |   0x00400140 |   0x00400140 |   0x00400140 |   0x00400140 |   0x00400140 |   0x00400140 |   0x00400140 |   0x00400140 |   0x00400140 |   0x00400140 |   0x00400140 |   0x00400140 |   0x00400140 |   0x00400140 |   0x00400140 |   0x00400140 |   0x00400140 |   0x00400140 |
ld_environ_base                         0x7fff8000 |   0x7fff8000 |   0x7fff8000 |   0x7fff8000 |   0x7fff8000 |   0x7fff8000 |   0x7fff8000 |   0x7fff8000 |   0x7fff8000 |   0x7fff8000 |   0x7fff8000 |   0x7fff8000 |   0x7fff8000 |   0x7fff8000 |   0x7fff8000 |   0x7fff8000 |   0x7fff8000 |   0x7fff8000 |   0x7fff8000 |   0x7fff8000 |   0x7fff8000 |   0x7fff8000 |   0x7fff8000 |   0x7fff8000 |   0x7fff8000 |   0x7fff8000 |   0x7fff8000 |   0x7fff8000 |   0x7fff8000 |   0x7fff8000 |   0x7fff8000 |   0x7fff8000 |   0x7fff8000 |   0x7fff8000 |   0x7fff8000 |   0x7fff8000 |   0x7fff8000 |   0x7fff8000 |   0x7fff8000 |   0x7fff8000 |   0x7fff8000 |   0x7fff8000 |   0x7fff8000 |   0x7fff8000 |
ld_target_big_endian                             0 |            0 |            0 |            0 |            0 |            0 |            0 |            0 |            0 |            0 |            0 |            0 |            0 |            0 |            0 |            0 |            0 |            0 |            0 |            0 |            0 |            0 |            0 |            0 |            0 |            0 |            0 |            0 |            0 |            0 |            0 |            0 |            0 |            0 |            0 |            0 |            0 |            0 |            0 |            0 |            0 |            0 |            0 |            0 |
mem.page_count                                  19 |           19 |           19 |           19 |           23 |           23 |           23 |           23 |           31 |           31 |           31 |           31 |           47 |           47 |           47 |           47 |           79 |           79 |           79 |           79 |          143 |          143 |          143 |          143 |          271 |          271 |          271 |          271 |          527 |          527 |          527 |          527 |         1039 |         1039 |         1039 |         1039 |         4139 |         4139 |         4139 |         4139 |         8260 |         8260 |         8260 |         8260 |
mem.page_mem                                   76k |          76k |          76k |          76k |          92k |          92k |          92k |          92k |         124k |         124k |         124k |         124k |         188k |         188k |         188k |         188k |         316k |         316k |         316k |         316k |         572k |         572k |         572k |         572k |        1084k |        1084k |        1084k |        1084k |        2108k |        2108k |        2108k |        2108k |        4156k |        4156k |        4156k |        4156k |       16556k |       16556k |       16556k |       16556k |       33040k |       33040k |       33040k |       33040k |
mem.ptab_misses                                 19 |           19 |           19 |           19 |           23 |           23 |           23 |           23 |           31 |           31 |           31 |           31 |           47 |           47 |           47 |           47 |           79 |           79 |           79 |           79 |          143 |          143 |          143 |          143 |          271 |          271 |          271 |          271 |          527 |          527 |          527 |          527 |         1039 |         1039 |         1039 |         1039 |        25631 |        25631 |        25631 |        25631 |        29752 |        29752 |        29752 |        29752 |
mem.ptab_accesses                          3172658 |      3172658 |      3172658 |      3172658 |      6426278 |      6426278 |      6426278 |      6426278 |     13128956 |     13128956 |     13128956 |     13128956 |     27189532 |     27189532 |     27189532 |     27189532 |     56826522 |     56826522 |     56826522 |     56826522 |    120059432 |    120059432 |    120059432 |    120059432 |    247578048 |    247578048 |    247578048 |    247578048 |    522749256 |    522749256 |    522749256 |    522749256 |   1079167958 |   1079167958 |   1079167958 |   1079167958 |   2846622350 |   2846622350 |   2846622350 |   2846622350 |   5656557952 |   5656557952 |   5656557952 |   5656557952 |
mem.ptab_miss_rate                          0.0000 |       0.0000 |       0.0000 |       0.0000 |       0.0000 |       0.0000 |       0.0000 |       0.0000 |       0.0000 |       0.0000 |       0.0000 |       0.0000 |       0.0000 |       0.0000 |       0.0000 |       0.0000 |       0.0000 |       0.0000 |       0.0000 |       0.0000 |       0.0000 |       0.0000 |       0.0000 |       0.0000 |       0.0000 |       0.0000 |       0.0000 |       0.0000 |       0.0000 |       0.0000 |       0.0000 |       0.0000 |       0.0000 |       0.0000 |       0.0000 |       0.0000 |       0.0000 |       0.0000 |       0.0000 |       0.0000 |       0.0000 |       0.0000 |       0.0000 |       0.0000 |
-------------------------------------------------------------------------------------------------
sim-bpred                                     4096 |         4096 |         4096 |         4096 |         4096 |         4096 |         4096 |         8192 |         8192 |         8192 |         8192 |         8192 |         8192 |         8192 |        16384 |        16384 |        16384 |        16384 |        16384 |        16384 |        16384 |        32768 |        32768 |        32768 |        32768 |        32768 |        32768 |        32768 |        65536 |        65536 |        65536 |        65536 |        65536 |        65536 |        65536 |       131072 |       131072 |       131072 |       131072 |       131072 |       131072 |       131072 |       262144 |       262144 |       262144 |       262144 |       262144 |       262144 |       262144 |       524288 |       524288 |       524288 |       524288 |       524288 |       524288 |       524288 |      1048576 |      1048576 |      1048576 |      1048576 |      1048576 |      1048576 |      1048576 |      2097152 |      2097152 |      2097152 |      2097152 |      2097152 |      2097152 |      2097152 |      4194304 |      4194304 |      4194304 |      4194304 |      4194304 |      4194304 |      4194304 |
-bpred bimod -bpred:bimod 512
-bpred bimod -bpred:bimod 1024
-bpred bimod -bpred:bimod 2048
-bpred 2lev -bpred:2lev 1 512 10 1
-bpred 2lev -bpred:2lev 1 1024 10 1
-bpred 2lev -bpred:2lev 1 2048 10 1
-bpred 2lev -bpred:2lev 1 4096 10 1
-------------------------------------------------------------------------------------------------
sim_num_insn                                644596 |       644596 |       644596 |       644596 |       644596 |       644596 |       644596 |      1354542 |      1354542 |      1354542 |      1354542 |      1354542 |      1354542 |      1354542 |      2817289 |      2817289 |      2817289 |      2817289 |      2817289 |      2817289 |      2817289 |      5888120 |      5888120 |      5888120 |      5888120 |      5888120 |      5888120 |      5888120 |     12371293 |     12371293 |     12371293 |     12371293 |     12371293 |     12371293 |     12371293 |     26236440 |     26236440 |     26236440 |     26236440 |     26236440 |     26236440 |     26236440 |     54160621 |     54160621 |     54160621 |     54160621 |     54160621 |     54160621 |     54160621 |    114615110 |    114615110 |    114615110 |    114615110 |    114615110 |    114615110 |    114615110 |    236737201 |    236737201 |    236737201 |    236737201 |    236737201 |    236737201 |    236737201 |    628201763 |    628201763 |    628201763 |    628201763 |    628201763 |    628201763 |    628201763 |   1247508732 |   1247508732 |   1247508732 |   1247508732 |   1247508732 |   1247508732 |   1247508732 |
sim_num_refs                                197248 |       197248 |       197248 |       197248 |       197248 |       197248 |       197248 |       404070 |       404070 |       404070 |       404070 |       404070 |       404070 |       404070 |       829867 |       829867 |       829867 |       829867 |       829867 |       829867 |       829867 |      1718397 |      1718397 |      1718397 |      1718397 |      1718397 |      1718397 |      1718397 |      3570546 |      3570546 |      3570546 |      3570546 |      3570546 |      3570546 |      3570546 |      7456707 |      7456707 |      7456707 |      7456707 |      7456707 |      7456707 |      7456707 |     15367653 |     15367653 |     15367653 |     15367653 |     15367653 |     15367653 |     15367653 |     32044279 |     32044279 |     32044279 |     32044279 |     32044279 |     32044279 |     32044279 |     66009448 |     66009448 |     66009448 |     66009448 |     66009448 |     66009448 |     66009448 |    166807519 |    166807519 |    166807519 |    166807519 |    166807519 |    166807519 |    166807519 |    333161382 |    333161382 |    333161382 |    333161382 |    333161382 |    333161382 |    333161382 |
sim_elapsed_time                                 1 |            1 |            1 |            1 |            1 |            1 |            1 |            1 |            1 |            1 |            1 |            1 |            1 |            1 |            1 |            1 |            1 |            1 |            1 |            1 |            1 |            1 |            1 |            1 |            1 |            1 |            1 |            1 |            1 |            2 |            1 |            2 |            1 |            2 |            1 |            3 |            4 |            3 |            3 |            3 |            3 |            4 |            8 |            6 |           43 |            8 |            7 |            7 |            6 |           14 |           13 |           14 |           14 |           15 |           14 |           14 |           29 |           28 |          131 |          211 |          141 |           30 |           29 |           78 |           77 |           78 |           79 |           80 |           79 |           79 |          155 |          154 |          155 |          157 |          157 |          157 |          157 |
sim_inst_rate                          644596.0000 |  644596.0000 |  644596.0000 |  644596.0000 |  644596.0000 |  644596.0000 |  644596.0000 | 1354542.0000 | 1354542.0000 | 1354542.0000 | 1354542.0000 | 1354542.0000 | 1354542.0000 | 1354542.0000 | 2817289.0000 | 2817289.0000 | 2817289.0000 | 2817289.0000 | 2817289.0000 | 2817289.0000 | 2817289.0000 | 5888120.0000 | 5888120.0000 | 5888120.0000 | 5888120.0000 | 5888120.0000 | 5888120.0000 | 5888120.0000 |12371293.0000 | 6185646.5000 |12371293.0000 | 6185646.5000 |12371293.0000 | 6185646.5000 |12371293.0000 | 8745480.0000 | 6559110.0000 | 8745480.0000 | 8745480.0000 | 8745480.0000 | 8745480.0000 | 6559110.0000 | 6770077.6250 | 9026770.1667 | 1259549.3256 | 6770077.6250 | 7737231.5714 | 7737231.5714 | 9026770.1667 | 8186793.5714 | 8816546.9231 | 8186793.5714 | 8186793.5714 | 7641007.3333 | 8186793.5714 | 8186793.5714 | 8163351.7586 | 8454900.0357 | 1807154.2061 | 1121977.2559 | 1678987.2411 | 7891240.0333 | 8163351.7586 | 8053868.7564 | 8158464.4545 | 8053868.7564 | 7951921.0506 | 7852522.0375 | 7951921.0506 | 7951921.0506 | 8048443.4323 | 8100706.0519 | 8048443.4323 | 7945915.4904 | 7945915.4904 | 7945915.4904 | 7945915.4904 |
sim_num_branches                            112521 |       112521 |       112521 |       112521 |       112521 |       112521 |       112521 |       236704 |       236704 |       236704 |       236704 |       236704 |       236704 |       236704 |       493771 |       493771 |       493771 |       493771 |       493771 |       493771 |       493771 |      1033158 |      1033158 |      1033158 |      1033158 |      1033158 |      1033158 |      1033158 |      2173134 |      2173134 |      2173134 |      2173134 |      2173134 |      2173134 |      2173134 |      4613468 |      4613468 |      4613468 |      4613468 |      4613468 |      4613468 |      4613468 |      9548938 |      9548938 |      9548938 |      9548938 |      9548938 |      9548938 |      9548938 |     20180966 |     20180966 |     20180966 |     20180966 |     20180966 |     20180966 |     20180966 |     41756949 |     41756949 |     41756949 |     41756949 |     41756949 |     41756949 |     41756949 |    104111301 |    104111301 |    104111301 |    104111301 |    104111301 |    104111301 |    104111301 |    206429452 |    206429452 |    206429452 |    206429452 |    206429452 |    206429452 |    206429452 |
sim_IPB                                     5.7287 |       5.7287 |       5.7287 |       5.7287 |       5.7287 |       5.7287 |       5.7287 |       5.7225 |       5.7225 |       5.7225 |       5.7225 |       5.7225 |       5.7225 |       5.7225 |       5.7057 |       5.7057 |       5.7057 |       5.7057 |       5.7057 |       5.7057 |       5.7057 |       5.6991 |       5.6991 |       5.6991 |       5.6991 |       5.6991 |       5.6991 |       5.6991 |       5.6928 |       5.6928 |       5.6928 |       5.6928 |       5.6928 |       5.6928 |       5.6928 |       5.6869 |       5.6869 |       5.6869 |       5.6869 |       5.6869 |       5.6869 |       5.6869 |       5.6719 |       5.6719 |       5.6719 |       5.6719 |       5.6719 |       5.6719 |       5.6719 |       5.6794 |       5.6794 |       5.6794 |       5.6794 |       5.6794 |       5.6794 |       5.6794 |       5.6694 |       5.6694 |       5.6694 |       5.6694 |       5.6694 |       5.6694 |       5.6694 |       6.0339 |       6.0339 |       6.0339 |       6.0339 |       6.0339 |       6.0339 |       6.0339 |       6.0433 |       6.0433 |       6.0433 |       6.0433 |       6.0433 |       6.0433 |       6.0433 |
bpred_bimod.lookups                         112521 |       112521 |       112521 |xxxxxxxxxxxxx |xxxxxxxxxxxxx |xxxxxxxxxxxxx |xxxxxxxxxxxxx |       236704 |       236704 |       236704 |xxxxxxxxxxxxx |xxxxxxxxxxxxx |xxxxxxxxxxxxx |xxxxxxxxxxxxx |       493771 |       493771 |       493771 |xxxxxxxxxxxxx |xxxxxxxxxxxxx |xxxxxxxxxxxxx |xxxxxxxxxxxxx |      1033158 |      1033158 |      1033158 |xxxxxxxxxxxxx |xxxxxxxxxxxxx |xxxxxxxxxxxxx |xxxxxxxxxxxxx |      2173134 |      2173134 |      2173134 |xxxxxxxxxxxxx |xxxxxxxxxxxxx |xxxxxxxxxxxxx |xxxxxxxxxxxxx |      4613468 |      4613468 |      4613468 |xxxxxxxxxxxxx |xxxxxxxxxxxxx |xxxxxxxxxxxxx |xxxxxxxxxxxxx |      9548938 |      9548938 |      9548938 |xxxxxxxxxxxxx |xxxxxxxxxxxxx |xxxxxxxxxxxxx |xxxxxxxxxxxxx |     20180966 |     20180966 |     20180966 |xxxxxxxxxxxxx |xxxxxxxxxxxxx |xxxxxxxxxxxxx |xxxxxxxxxxxxx |     41756949 |     41756949 |     41756949 |xxxxxxxxxxxxx |xxxxxxxxxxxxx |xxxxxxxxxxxxx |xxxxxxxxxxxxx |    104111301 |    104111301 |    104111301 |xxxxxxxxxxxxx |xxxxxxxxxxxxx |xxxxxxxxxxxxx |xxxxxxxxxxxxx |    206429452 |    206429452 |    206429452 |
bpred_bimod.updates                         112521 |       112521 |       112521 |xxxxxxxxxxxxx |xxxxxxxxxxxxx |xxxxxxxxxxxxx |xxxxxxxxxxxxx |       236704 |       236704 |       236704 |xxxxxxxxxxxxx |xxxxxxxxxxxxx |xxxxxxxxxxxxx |xxxxxxxxxxxxx |       493771 |       493771 |       493771 |xxxxxxxxxxxxx |xxxxxxxxxxxxx |xxxxxxxxxxxxx |xxxxxxxxxxxxx |      1033158 |      1033158 |      1033158 |xxxxxxxxxxxxx |xxxxxxxxxxxxx |xxxxxxxxxxxxx |xxxxxxxxxxxxx |      2173134 |      2173134 |      2173134 |xxxxxxxxxxxxx |xxxxxxxxxxxxx |xxxxxxxxxxxxx |xxxxxxxxxxxxx |      4613468 |      4613468 |      4613468 |xxxxxxxxxxxxx |xxxxxxxxxxxxx |xxxxxxxxxxxxx |xxxxxxxxxxxxx |      9548938 |      9548938 |      9548938 |xxxxxxxxxxxxx |xxxxxxxxxxxxx |xxxxxxxxxxxxx |xxxxxxxxxxxxx |     20180966 |     20180966 |     20180966 |xxxxxxxxxxxxx |xxxxxxxxxxxxx |xxxxxxxxxxxxx |xxxxxxxxxxxxx |     41756949 |     41756949 |     41756949 |xxxxxxxxxxxxx |xxxxxxxxxxxxx |xxxxxxxxxxxxx |xxxxxxxxxxxxx |    104111301 |    104111301 |    104111301 |xxxxxxxxxxxxx |xxxxxxxxxxxxx |xxxxxxxxxxxxx |xxxxxxxxxxxxx |    206429452 |    206429452 |    206429452 |
bpred_bimod.addr_hits                        87853 |        87852 |        87858 |xxxxxxxxxxxxx |xxxxxxxxxxxxx |xxxxxxxxxxxxx |xxxxxxxxxxxxx |       184768 |       184768 |       184773 |xxxxxxxxxxxxx |xxxxxxxxxxxxx |xxxxxxxxxxxxx |xxxxxxxxxxxxx |       384910 |       384909 |       384915 |xxxxxxxxxxxxx |xxxxxxxxxxxxx |xxxxxxxxxxxxx |xxxxxxxxxxxxx |       797242 |       797243 |       797248 |xxxxxxxxxxxxx |xxxxxxxxxxxxx |xxxxxxxxxxxxx |xxxxxxxxxxxxx |      1673450 |      1673452 |      1673457 |xxxxxxxxxxxxx |xxxxxxxxxxxxx |xxxxxxxxxxxxx |xxxxxxxxxxxxx |      3572189 |      3572192 |      3572196 |xxxxxxxxxxxxx |xxxxxxxxxxxxx |xxxxxxxxxxxxx |xxxxxxxxxxxxx |      7329556 |      7329559 |      7329564 |xxxxxxxxxxxxx |xxxxxxxxxxxxx |xxxxxxxxxxxxx |xxxxxxxxxxxxx |     15567230 |     15567234 |     15567239 |xxxxxxxxxxxxx |xxxxxxxxxxxxx |xxxxxxxxxxxxx |xxxxxxxxxxxxx |     32021856 |     32021856 |     32021861 |xxxxxxxxxxxxx |xxxxxxxxxxxxx |xxxxxxxxxxxxx |xxxxxxxxxxxxx |     80686135 |     80686142 |     80686143 |xxxxxxxxxxxxx |xxxxxxxxxxxxx |xxxxxxxxxxxxx |xxxxxxxxxxxxx |    162065596 |    162065608 |    162065608 |
bpred_bimod.dir_hits                         87978 |        87974 |        87979 |xxxxxxxxxxxxx |xxxxxxxxxxxxx |xxxxxxxxxxxxx |xxxxxxxxxxxxx |       184891 |       184889 |       184893 |xxxxxxxxxxxxx |xxxxxxxxxxxxx |xxxxxxxxxxxxx |xxxxxxxxxxxxx |       385042 |       385038 |       385041 |xxxxxxxxxxxxx |xxxxxxxxxxxxx |xxxxxxxxxxxxx |xxxxxxxxxxxxx |       797374 |       797370 |       797374 |xxxxxxxxxxxxx |xxxxxxxxxxxxx |xxxxxxxxxxxxx |xxxxxxxxxxxxx |      1673582 |      1673580 |      1673584 |xxxxxxxxxxxxx |xxxxxxxxxxxxx |xxxxxxxxxxxxx |xxxxxxxxxxxxx |      3572314 |      3572314 |      3572317 |xxxxxxxxxxxxx |xxxxxxxxxxxxx |xxxxxxxxxxxxx |xxxxxxxxxxxxx |      7329685 |      7329685 |      7329689 |xxxxxxxxxxxxx |xxxxxxxxxxxxx |xxxxxxxxxxxxx |xxxxxxxxxxxxx |     15567360 |     15567360 |     15567364 |xxxxxxxxxxxxx |xxxxxxxxxxxxx |xxxxxxxxxxxxx |xxxxxxxxxxxxx |     32021986 |     32021982 |     32021986 |xxxxxxxxxxxxx |xxxxxxxxxxxxx |xxxxxxxxxxxxx |xxxxxxxxxxxxx |     80686300 |     80686302 |     80686302 |xxxxxxxxxxxxx |xxxxxxxxxxxxx |xxxxxxxxxxxxx |xxxxxxxxxxxxx |    162065766 |    162065774 |    162065773 |
bpred_bimod.misses                           24543 |        24547 |        24542 |xxxxxxxxxxxxx |xxxxxxxxxxxxx |xxxxxxxxxxxxx |xxxxxxxxxxxxx |        51813 |        51815 |        51811 |xxxxxxxxxxxxx |xxxxxxxxxxxxx |xxxxxxxxxxxxx |xxxxxxxxxxxxx |       108729 |       108733 |       108730 |xxxxxxxxxxxxx |xxxxxxxxxxxxx |xxxxxxxxxxxxx |xxxxxxxxxxxxx |       235784 |       235788 |       235784 |xxxxxxxxxxxxx |xxxxxxxxxxxxx |xxxxxxxxxxxxx |xxxxxxxxxxxxx |       499552 |       499554 |       499550 |xxxxxxxxxxxxx |xxxxxxxxxxxxx |xxxxxxxxxxxxx |xxxxxxxxxxxxx |      1041154 |      1041154 |      1041151 |xxxxxxxxxxxxx |xxxxxxxxxxxxx |xxxxxxxxxxxxx |xxxxxxxxxxxxx |      2219253 |      2219253 |      2219249 |xxxxxxxxxxxxx |xxxxxxxxxxxxx |xxxxxxxxxxxxx |xxxxxxxxxxxxx |      4613606 |      4613606 |      4613602 |xxxxxxxxxxxxx |xxxxxxxxxxxxx |xxxxxxxxxxxxx |xxxxxxxxxxxxx |      9734963 |      9734967 |      9734963 |xxxxxxxxxxxxx |xxxxxxxxxxxxx |xxxxxxxxxxxxx |xxxxxxxxxxxxx |     23425001 |     23424999 |     23424999 |xxxxxxxxxxxxx |xxxxxxxxxxxxx |xxxxxxxxxxxxx |xxxxxxxxxxxxx |     44363686 |     44363678 |     44363679 |
bpred_bimod.jr_hits                           8560 |         8560 |         8560 |xxxxxxxxxxxxx |xxxxxxxxxxxxx |xxxxxxxxxxxxx |xxxxxxxxxxxxx |        16752 |        16752 |        16752 |xxxxxxxxxxxxx |xxxxxxxxxxxxx |xxxxxxxxxxxxx |xxxxxxxxxxxxx |        33136 |        33136 |        33136 |xxxxxxxxxxxxx |xxxxxxxxxxxxx |xxxxxxxxxxxxx |xxxxxxxxxxxxx |        65904 |        65904 |        65904 |xxxxxxxxxxxxx |xxxxxxxxxxxxx |xxxxxxxxxxxxx |xxxxxxxxxxxxx |       131440 |       131440 |       131440 |xxxxxxxxxxxxx |xxxxxxxxxxxxx |xxxxxxxxxxxxx |xxxxxxxxxxxxx |       262512 |       262512 |       262512 |xxxxxxxxxxxxx |xxxxxxxxxxxxx |xxxxxxxxxxxxx |xxxxxxxxxxxxx |       524656 |       524656 |       524656 |xxxxxxxxxxxxx |xxxxxxxxxxxxx |xxxxxxxxxxxxx |xxxxxxxxxxxxx |      1048944 |      1048944 |      1048944 |xxxxxxxxxxxxx |xxxxxxxxxxxxx |xxxxxxxxxxxxx |xxxxxxxxxxxxx |      2097520 |      2097520 |      2097520 |xxxxxxxxxxxxx |xxxxxxxxxxxxx |xxxxxxxxxxxxx |xxxxxxxxxxxxx |      4194705 |      4194705 |      4194705 |xxxxxxxxxxxxx |xxxxxxxxxxxxx |xxxxxxxxxxxxx |xxxxxxxxxxxxx |      8389009 |      8389009 |      8389009 |
bpred_bimod.jr_seen                           8560 |         8560 |         8560 |xxxxxxxxxxxxx |xxxxxxxxxxxxx |xxxxxxxxxxxxx |xxxxxxxxxxxxx |        16752 |        16752 |        16752 |xxxxxxxxxxxxx |xxxxxxxxxxxxx |xxxxxxxxxxxxx |xxxxxxxxxxxxx |        33136 |        33136 |        33136 |xxxxxxxxxxxxx |xxxxxxxxxxxxx |xxxxxxxxxxxxx |xxxxxxxxxxxxx |        65904 |        65904 |        65904 |xxxxxxxxxxxxx |xxxxxxxxxxxxx |xxxxxxxxxxxxx |xxxxxxxxxxxxx |       131440 |       131440 |       131440 |xxxxxxxxxxxxx |xxxxxxxxxxxxx |xxxxxxxxxxxxx |xxxxxxxxxxxxx |       262512 |       262512 |       262512 |xxxxxxxxxxxxx |xxxxxxxxxxxxx |xxxxxxxxxxxxx |xxxxxxxxxxxxx |       524656 |       524656 |       524656 |xxxxxxxxxxxxx |xxxxxxxxxxxxx |xxxxxxxxxxxxx |xxxxxxxxxxxxx |      1048944 |      1048944 |      1048944 |xxxxxxxxxxxxx |xxxxxxxxxxxxx |xxxxxxxxxxxxx |xxxxxxxxxxxxx |      2097520 |      2097520 |      2097520 |xxxxxxxxxxxxx |xxxxxxxxxxxxx |xxxxxxxxxxxxx |xxxxxxxxxxxxx |      4194706 |      4194706 |      4194706 |xxxxxxxxxxxxx |xxxxxxxxxxxxx |xxxxxxxxxxxxx |xxxxxxxxxxxxx |      8389010 |      8389010 |      8389010 |
bpred_bimod.jr_non_ras_hits.PP                   0 |            0 |            0 |xxxxxxxxxxxxx |xxxxxxxxxxxxx |xxxxxxxxxxxxx |xxxxxxxxxxxxx |            0 |            0 |            0 |xxxxxxxxxxxxx |xxxxxxxxxxxxx |xxxxxxxxxxxxx |xxxxxxxxxxxxx |            0 |            0 |            0 |xxxxxxxxxxxxx |xxxxxxxxxxxxx |xxxxxxxxxxxxx |xxxxxxxxxxxxx |            0 |            0 |            0 |xxxxxxxxxxxxx |xxxxxxxxxxxxx |xxxxxxxxxxxxx |xxxxxxxxxxxxx |            0 |            0 |            0 |xxxxxxxxxxxxx |xxxxxxxxxxxxx |xxxxxxxxxxxxx |xxxxxxxxxxxxx |            0 |            0 |            0 |xxxxxxxxxxxxx |xxxxxxxxxxxxx |xxxxxxxxxxxxx |xxxxxxxxxxxxx |            0 |            0 |            0 |xxxxxxxxxxxxx |xxxxxxxxxxxxx |xxxxxxxxxxxxx |xxxxxxxxxxxxx |            0 |            0 |            0 |xxxxxxxxxxxxx |xxxxxxxxxxxxx |xxxxxxxxxxxxx |xxxxxxxxxxxxx |            0 |            0 |            0 |xxxxxxxxxxxxx |xxxxxxxxxxxxx |xxxxxxxxxxxxx |xxxxxxxxxxxxx |            0 |            0 |            0 |xxxxxxxxxxxxx |xxxxxxxxxxxxx |xxxxxxxxxxxxx |xxxxxxxxxxxxx |            0 |            0 |            0 |
bpred_bimod.jr_non_ras_seen.PP                   0 |            0 |            0 |xxxxxxxxxxxxx |xxxxxxxxxxxxx |xxxxxxxxxxxxx |xxxxxxxxxxxxx |            0 |            0 |            0 |xxxxxxxxxxxxx |xxxxxxxxxxxxx |xxxxxxxxxxxxx |xxxxxxxxxxxxx |            0 |            0 |            0 |xxxxxxxxxxxxx |xxxxxxxxxxxxx |xxxxxxxxxxxxx |xxxxxxxxxxxxx |            0 |            0 |            0 |xxxxxxxxxxxxx |xxxxxxxxxxxxx |xxxxxxxxxxxxx |xxxxxxxxxxxxx |            0 |            0 |            0 |xxxxxxxxxxxxx |xxxxxxxxxxxxx |xxxxxxxxxxxxx |xxxxxxxxxxxxx |            0 |            0 |            0 |xxxxxxxxxxxxx |xxxxxxxxxxxxx |xxxxxxxxxxxxx |xxxxxxxxxxxxx |            0 |            0 |            0 |xxxxxxxxxxxxx |xxxxxxxxxxxxx |xxxxxxxxxxxxx |xxxxxxxxxxxxx |            0 |            0 |            0 |xxxxxxxxxxxxx |xxxxxxxxxxxxx |xxxxxxxxxxxxx |xxxxxxxxxxxxx |            0 |            0 |            0 |xxxxxxxxxxxxx |xxxxxxxxxxxxx |xxxxxxxxxxxxx |xxxxxxxxxxxxx |            1 |            1 |            1 |xxxxxxxxxxxxx |xxxxxxxxxxxxx |xxxxxxxxxxxxx |xxxxxxxxxxxxx |            1 |            1 |            1 |
bpred_bimod.bpred_addr_rate                 0.7808 |       0.7808 |       0.7808 |xxxxxxxxxxxxx |xxxxxxxxxxxxx |xxxxxxxxxxxxx |xxxxxxxxxxxxx |       0.7806 |       0.7806 |       0.7806 |xxxxxxxxxxxxx |xxxxxxxxxxxxx |xxxxxxxxxxxxx |xxxxxxxxxxxxx |       0.7795 |       0.7795 |       0.7795 |xxxxxxxxxxxxx |xxxxxxxxxxxxx |xxxxxxxxxxxxx |xxxxxxxxxxxxx |       0.7717 |       0.7717 |       0.7717 |xxxxxxxxxxxxx |xxxxxxxxxxxxx |xxxxxxxxxxxxx |xxxxxxxxxxxxx |       0.7701 |       0.7701 |       0.7701 |xxxxxxxxxxxxx |xxxxxxxxxxxxx |xxxxxxxxxxxxx |xxxxxxxxxxxxx |       0.7743 |       0.7743 |       0.7743 |xxxxxxxxxxxxx |xxxxxxxxxxxxx |xxxxxxxxxxxxx |xxxxxxxxxxxxx |       0.7676 |       0.7676 |       0.7676 |xxxxxxxxxxxxx |xxxxxxxxxxxxx |xxxxxxxxxxxxx |xxxxxxxxxxxxx |       0.7714 |       0.7714 |       0.7714 |xxxxxxxxxxxxx |xxxxxxxxxxxxx |xxxxxxxxxxxxx |xxxxxxxxxxxxx |       0.7669 |       0.7669 |       0.7669 |xxxxxxxxxxxxx |xxxxxxxxxxxxx |xxxxxxxxxxxxx |xxxxxxxxxxxxx |       0.7750 |       0.7750 |       0.7750 |xxxxxxxxxxxxx |xxxxxxxxxxxxx |xxxxxxxxxxxxx |xxxxxxxxxxxxx |       0.7851 |       0.7851 |       0.7851 |
bpred_bimod.bpred_dir_rate                  0.7819 |       0.7818 |       0.7819 |xxxxxxxxxxxxx |xxxxxxxxxxxxx |xxxxxxxxxxxxx |xxxxxxxxxxxxx |       0.7811 |       0.7811 |       0.7811 |xxxxxxxxxxxxx |xxxxxxxxxxxxx |xxxxxxxxxxxxx |xxxxxxxxxxxxx |       0.7798 |       0.7798 |       0.7798 |xxxxxxxxxxxxx |xxxxxxxxxxxxx |xxxxxxxxxxxxx |xxxxxxxxxxxxx |       0.7718 |       0.7718 |       0.7718 |xxxxxxxxxxxxx |xxxxxxxxxxxxx |xxxxxxxxxxxxx |xxxxxxxxxxxxx |       0.7701 |       0.7701 |       0.7701 |xxxxxxxxxxxxx |xxxxxxxxxxxxx |xxxxxxxxxxxxx |xxxxxxxxxxxxx |       0.7743 |       0.7743 |       0.7743 |xxxxxxxxxxxxx |xxxxxxxxxxxxx |xxxxxxxxxxxxx |xxxxxxxxxxxxx |       0.7676 |       0.7676 |       0.7676 |xxxxxxxxxxxxx |xxxxxxxxxxxxx |xxxxxxxxxxxxx |xxxxxxxxxxxxx |       0.7714 |       0.7714 |       0.7714 |xxxxxxxxxxxxx |xxxxxxxxxxxxx |xxxxxxxxxxxxx |xxxxxxxxxxxxx |       0.7669 |       0.7669 |       0.7669 |xxxxxxxxxxxxx |xxxxxxxxxxxxx |xxxxxxxxxxxxx |xxxxxxxxxxxxx |       0.7750 |       0.7750 |       0.7750 |xxxxxxxxxxxxx |xxxxxxxxxxxxx |xxxxxxxxxxxxx |xxxxxxxxxxxxx |       0.7851 |       0.7851 |       0.7851 |
bpred_bimod.bpred_jr_rate                   1.0000 |       1.0000 |       1.0000 |xxxxxxxxxxxxx |xxxxxxxxxxxxx |xxxxxxxxxxxxx |xxxxxxxxxxxxx |       1.0000 |       1.0000 |       1.0000 |xxxxxxxxxxxxx |xxxxxxxxxxxxx |xxxxxxxxxxxxx |xxxxxxxxxxxxx |       1.0000 |       1.0000 |       1.0000 |xxxxxxxxxxxxx |xxxxxxxxxxxxx |xxxxxxxxxxxxx |xxxxxxxxxxxxx |       1.0000 |       1.0000 |       1.0000 |xxxxxxxxxxxxx |xxxxxxxxxxxxx |xxxxxxxxxxxxx |xxxxxxxxxxxxx |       1.0000 |       1.0000 |       1.0000 |xxxxxxxxxxxxx |xxxxxxxxxxxxx |xxxxxxxxxxxxx |xxxxxxxxxxxxx |       1.0000 |       1.0000 |       1.0000 |xxxxxxxxxxxxx |xxxxxxxxxxxxx |xxxxxxxxxxxxx |xxxxxxxxxxxxx |       1.0000 |       1.0000 |       1.0000 |xxxxxxxxxxxxx |xxxxxxxxxxxxx |xxxxxxxxxxxxx |xxxxxxxxxxxxx |       1.0000 |       1.0000 |       1.0000 |xxxxxxxxxxxxx |xxxxxxxxxxxxx |xxxxxxxxxxxxx |xxxxxxxxxxxxx |       1.0000 |       1.0000 |       1.0000 |xxxxxxxxxxxxx |xxxxxxxxxxxxx |xxxxxxxxxxxxx |xxxxxxxxxxxxx |       1.0000 |       1.0000 |       1.0000 |xxxxxxxxxxxxx |xxxxxxxxxxxxx |xxxxxxxxxxxxx |xxxxxxxxxxxxx |       1.0000 |       1.0000 |       1.0000 |
bpred_bimod.bpred_jr_non_ras_rate.PP       <error: |      <error: |      <error: |xxxxxxxxxxxxx |xxxxxxxxxxxxx |xxxxxxxxxxxxx |xxxxxxxxxxxxx |      <error: |      <error: |      <error: |xxxxxxxxxxxxx |xxxxxxxxxxxxx |xxxxxxxxxxxxx |xxxxxxxxxxxxx |      <error: |      <error: |      <error: |xxxxxxxxxxxxx |xxxxxxxxxxxxx |xxxxxxxxxxxxx |xxxxxxxxxxxxx |      <error: |      <error: |      <error: |xxxxxxxxxxxxx |xxxxxxxxxxxxx |xxxxxxxxxxxxx |xxxxxxxxxxxxx |      <error: |      <error: |      <error: |xxxxxxxxxxxxx |xxxxxxxxxxxxx |xxxxxxxxxxxxx |xxxxxxxxxxxxx |      <error: |      <error: |      <error: |xxxxxxxxxxxxx |xxxxxxxxxxxxx |xxxxxxxxxxxxx |xxxxxxxxxxxxx |      <error: |      <error: |      <error: |xxxxxxxxxxxxx |xxxxxxxxxxxxx |xxxxxxxxxxxxx |xxxxxxxxxxxxx |      <error: |      <error: |      <error: |xxxxxxxxxxxxx |xxxxxxxxxxxxx |xxxxxxxxxxxxx |xxxxxxxxxxxxx |      <error: |      <error: |      <error: |xxxxxxxxxxxxx |xxxxxxxxxxxxx |xxxxxxxxxxxxx |xxxxxxxxxxxxx |       0.0000 |       0.0000 |       0.0000 |xxxxxxxxxxxxx |xxxxxxxxxxxxx |xxxxxxxxxxxxx |xxxxxxxxxxxxx |       0.0000 |       0.0000 |       0.0000 |
bpred_bimod.retstack_pushes                   8562 |         8562 |         8562 |xxxxxxxxxxxxx |xxxxxxxxxxxxx |xxxxxxxxxxxxx |xxxxxxxxxxxxx |        16754 |        16754 |        16754 |xxxxxxxxxxxxx |xxxxxxxxxxxxx |xxxxxxxxxxxxx |xxxxxxxxxxxxx |        33138 |        33138 |        33138 |xxxxxxxxxxxxx |xxxxxxxxxxxxx |xxxxxxxxxxxxx |xxxxxxxxxxxxx |        65906 |        65906 |        65906 |xxxxxxxxxxxxx |xxxxxxxxxxxxx |xxxxxxxxxxxxx |xxxxxxxxxxxxx |       131442 |       131442 |       131442 |xxxxxxxxxxxxx |xxxxxxxxxxxxx |xxxxxxxxxxxxx |xxxxxxxxxxxxx |       262514 |       262514 |       262514 |xxxxxxxxxxxxx |xxxxxxxxxxxxx |xxxxxxxxxxxxx |xxxxxxxxxxxxx |       524658 |       524658 |       524658 |xxxxxxxxxxxxx |xxxxxxxxxxxxx |xxxxxxxxxxxxx |xxxxxxxxxxxxx |      1048946 |      1048946 |      1048946 |xxxxxxxxxxxxx |xxxxxxxxxxxxx |xxxxxxxxxxxxx |xxxxxxxxxxxxx |      2097522 |      2097522 |      2097522 |xxxxxxxxxxxxx |xxxxxxxxxxxxx |xxxxxxxxxxxxx |xxxxxxxxxxxxx |      4194707 |      4194707 |      4194707 |xxxxxxxxxxxxx |xxxxxxxxxxxxx |xxxxxxxxxxxxx |xxxxxxxxxxxxx |      8389011 |      8389011 |      8389011 |
bpred_bimod.retstack_pops                     8560 |         8560 |         8560 |xxxxxxxxxxxxx |xxxxxxxxxxxxx |xxxxxxxxxxxxx |xxxxxxxxxxxxx |        16752 |        16752 |        16752 |xxxxxxxxxxxxx |xxxxxxxxxxxxx |xxxxxxxxxxxxx |xxxxxxxxxxxxx |        33136 |        33136 |        33136 |xxxxxxxxxxxxx |xxxxxxxxxxxxx |xxxxxxxxxxxxx |xxxxxxxxxxxxx |        65904 |        65904 |        65904 |xxxxxxxxxxxxx |xxxxxxxxxxxxx |xxxxxxxxxxxxx |xxxxxxxxxxxxx |       131440 |       131440 |       131440 |xxxxxxxxxxxxx |xxxxxxxxxxxxx |xxxxxxxxxxxxx |xxxxxxxxxxxxx |       262512 |       262512 |       262512 |xxxxxxxxxxxxx |xxxxxxxxxxxxx |xxxxxxxxxxxxx |xxxxxxxxxxxxx |       524656 |       524656 |       524656 |xxxxxxxxxxxxx |xxxxxxxxxxxxx |xxxxxxxxxxxxx |xxxxxxxxxxxxx |      1048944 |      1048944 |      1048944 |xxxxxxxxxxxxx |xxxxxxxxxxxxx |xxxxxxxxxxxxx |xxxxxxxxxxxxx |      2097520 |      2097520 |      2097520 |xxxxxxxxxxxxx |xxxxxxxxxxxxx |xxxxxxxxxxxxx |xxxxxxxxxxxxx |      4194705 |      4194705 |      4194705 |xxxxxxxxxxxxx |xxxxxxxxxxxxx |xxxxxxxxxxxxx |xxxxxxxxxxxxx |      8389009 |      8389009 |      8389009 |
bpred_bimod.used_ras.PP                       8560 |         8560 |         8560 |xxxxxxxxxxxxx |xxxxxxxxxxxxx |xxxxxxxxxxxxx |xxxxxxxxxxxxx |        16752 |        16752 |        16752 |xxxxxxxxxxxxx |xxxxxxxxxxxxx |xxxxxxxxxxxxx |xxxxxxxxxxxxx |        33136 |        33136 |        33136 |xxxxxxxxxxxxx |xxxxxxxxxxxxx |xxxxxxxxxxxxx |xxxxxxxxxxxxx |        65904 |        65904 |        65904 |xxxxxxxxxxxxx |xxxxxxxxxxxxx |xxxxxxxxxxxxx |xxxxxxxxxxxxx |       131440 |       131440 |       131440 |xxxxxxxxxxxxx |xxxxxxxxxxxxx |xxxxxxxxxxxxx |xxxxxxxxxxxxx |       262512 |       262512 |       262512 |xxxxxxxxxxxxx |xxxxxxxxxxxxx |xxxxxxxxxxxxx |xxxxxxxxxxxxx |       524656 |       524656 |       524656 |xxxxxxxxxxxxx |xxxxxxxxxxxxx |xxxxxxxxxxxxx |xxxxxxxxxxxxx |      1048944 |      1048944 |      1048944 |xxxxxxxxxxxxx |xxxxxxxxxxxxx |xxxxxxxxxxxxx |xxxxxxxxxxxxx |      2097520 |      2097520 |      2097520 |xxxxxxxxxxxxx |xxxxxxxxxxxxx |xxxxxxxxxxxxx |xxxxxxxxxxxxx |      4194705 |      4194705 |      4194705 |xxxxxxxxxxxxx |xxxxxxxxxxxxx |xxxxxxxxxxxxx |xxxxxxxxxxxxx |      8389009 |      8389009 |      8389009 |
bpred_bimod.ras_hits.PP                       8560 |         8560 |         8560 |xxxxxxxxxxxxx |xxxxxxxxxxxxx |xxxxxxxxxxxxx |xxxxxxxxxxxxx |        16752 |        16752 |        16752 |xxxxxxxxxxxxx |xxxxxxxxxxxxx |xxxxxxxxxxxxx |xxxxxxxxxxxxx |        33136 |        33136 |        33136 |xxxxxxxxxxxxx |xxxxxxxxxxxxx |xxxxxxxxxxxxx |xxxxxxxxxxxxx |        65904 |        65904 |        65904 |xxxxxxxxxxxxx |xxxxxxxxxxxxx |xxxxxxxxxxxxx |xxxxxxxxxxxxx |       131440 |       131440 |       131440 |xxxxxxxxxxxxx |xxxxxxxxxxxxx |xxxxxxxxxxxxx |xxxxxxxxxxxxx |       262512 |       262512 |       262512 |xxxxxxxxxxxxx |xxxxxxxxxxxxx |xxxxxxxxxxxxx |xxxxxxxxxxxxx |       524656 |       524656 |       524656 |xxxxxxxxxxxxx |xxxxxxxxxxxxx |xxxxxxxxxxxxx |xxxxxxxxxxxxx |      1048944 |      1048944 |      1048944 |xxxxxxxxxxxxx |xxxxxxxxxxxxx |xxxxxxxxxxxxx |xxxxxxxxxxxxx |      2097520 |      2097520 |      2097520 |xxxxxxxxxxxxx |xxxxxxxxxxxxx |xxxxxxxxxxxxx |xxxxxxxxxxxxx |      4194705 |      4194705 |      4194705 |xxxxxxxxxxxxx |xxxxxxxxxxxxx |xxxxxxxxxxxxx |xxxxxxxxxxxxx |      8389009 |      8389009 |      8389009 |
bpred_bimod.ras_rate.PP                     1.0000 |       1.0000 |       1.0000 |xxxxxxxxxxxxx |xxxxxxxxxxxxx |xxxxxxxxxxxxx |xxxxxxxxxxxxx |       1.0000 |       1.0000 |       1.0000 |xxxxxxxxxxxxx |xxxxxxxxxxxxx |xxxxxxxxxxxxx |xxxxxxxxxxxxx |       1.0000 |       1.0000 |       1.0000 |xxxxxxxxxxxxx |xxxxxxxxxxxxx |xxxxxxxxxxxxx |xxxxxxxxxxxxx |       1.0000 |       1.0000 |       1.0000 |xxxxxxxxxxxxx |xxxxxxxxxxxxx |xxxxxxxxxxxxx |xxxxxxxxxxxxx |       1.0000 |       1.0000 |       1.0000 |xxxxxxxxxxxxx |xxxxxxxxxxxxx |xxxxxxxxxxxxx |xxxxxxxxxxxxx |       1.0000 |       1.0000 |       1.0000 |xxxxxxxxxxxxx |xxxxxxxxxxxxx |xxxxxxxxxxxxx |xxxxxxxxxxxxx |       1.0000 |       1.0000 |       1.0000 |xxxxxxxxxxxxx |xxxxxxxxxxxxx |xxxxxxxxxxxxx |xxxxxxxxxxxxx |       1.0000 |       1.0000 |       1.0000 |xxxxxxxxxxxxx |xxxxxxxxxxxxx |xxxxxxxxxxxxx |xxxxxxxxxxxxx |       1.0000 |       1.0000 |       1.0000 |xxxxxxxxxxxxx |xxxxxxxxxxxxx |xxxxxxxxxxxxx |xxxxxxxxxxxxx |       1.0000 |       1.0000 |       1.0000 |xxxxxxxxxxxxx |xxxxxxxxxxxxx |xxxxxxxxxxxxx |xxxxxxxxxxxxx |       1.0000 |       1.0000 |       1.0000 |
bpred_2lev.lookups                   xxxxxxxxxxxxx |xxxxxxxxxxxxx |xxxxxxxxxxxxx |       112521 |       112521 |       112521 |       112521 |xxxxxxxxxxxxx |xxxxxxxxxxxxx |xxxxxxxxxxxxx |       236704 |       236704 |       236704 |       236704 |xxxxxxxxxxxxx |xxxxxxxxxxxxx |xxxxxxxxxxxxx |       493771 |       493771 |       493771 |       493771 |xxxxxxxxxxxxx |xxxxxxxxxxxxx |xxxxxxxxxxxxx |      1033158 |      1033158 |      1033158 |      1033158 |xxxxxxxxxxxxx |xxxxxxxxxxxxx |xxxxxxxxxxxxx |      2173134 |      2173134 |      2173134 |      2173134 |xxxxxxxxxxxxx |xxxxxxxxxxxxx |xxxxxxxxxxxxx |      4613468 |      4613468 |      4613468 |      4613468 |xxxxxxxxxxxxx |xxxxxxxxxxxxx |xxxxxxxxxxxxx |      9548938 |      9548938 |      9548938 |      9548938 |xxxxxxxxxxxxx |xxxxxxxxxxxxx |xxxxxxxxxxxxx |     20180966 |     20180966 |     20180966 |     20180966 |xxxxxxxxxxxxx |xxxxxxxxxxxxx |xxxxxxxxxxxxx |     41756949 |     41756949 |     41756949 |     41756949 |xxxxxxxxxxxxx |xxxxxxxxxxxxx |xxxxxxxxxxxxx |    104111301 |    104111301 |    104111301 |    104111301 |xxxxxxxxxxxxx |xxxxxxxxxxxxx |xxxxxxxxxxxxx |    206429452 |    206429452 |    206429452 |    206429452 |
[...]
bpred_2lev.retstack_pushes           xxxxxxxxxxxxx |xxxxxxxxxxxxx |xxxxxxxxxxxxx |         8562 |         8562 |         8562 |         8562 |xxxxxxxxxxxxx |xxxxxxxxxxxxx |xxxxxxxxxxxxx |        16754 |        16754 |        16754 |        16754 |xxxxxxxxxxxxx |xxxxxxxxxxxxx |xxxxxxxxxxxxx |        33138 |        33138 |        33138 |        33138 |xxxxxxxxxxxxx |xxxxxxxxxxxxx |xxxxxxxxxxxxx |        65906 |        65906 |        65906 |        65906 |xxxxxxxxxxxxx |xxxxxxxxxxxxx |xxxxxxxxxxxxx |       131442 |       131442 |       131442 |       131442 |xxxxxxxxxxxxx |xxxxxxxxxxxxx |xxxxxxxxxxxxx |       262514 |       262514 |       262514 |       262514 |xxxxxxxxxxxxx |xxxxxxxxxxxxx |xxxxxxxxxxxxx |       524658 |       524658 |       524658 |       524658 |xxxxxxxxxxxxx |xxxxxxxxxxxxx |xxxxxxxxxxxxx |      1048946 |      1048946 |      1048946 |      1048946 |xxxxxxxxxxxxx |xxxxxxxxxxxxx |xxxxxxxxxxxxx |      2097522 |      2097522 |      2097522 |      2097522 |xxxxxxxxxxxxx |xxxxxxxxxxxxx |xxxxxxxxxxxxx |      4194707 |      4194707 |      4194707 |      4194707 |xxxxxxxxxxxxx |xxxxxxxxxxxxx |xxxxxxxxxxxxx |      8389011 |      8389011 |      8389011 |      8389011 |
bpred_2lev.retstack_pops             xxxxxxxxxxxxx |xxxxxxxxxxxxx |xxxxxxxxxxxxx |         8560 |         8560 |         8560 |         8560 |xxxxxxxxxxxxx |xxxxxxxxxxxxx |xxxxxxxxxxxxx |        16752 |        16752 |        16752 |        16752 |xxxxxxxxxxxxx |xxxxxxxxxxxxx |xxxxxxxxxxxxx |        33136 |        33136 |        33136 |        33136 |xxxxxxxxxxxxx |xxxxxxxxxxxxx |xxxxxxxxxxxxx |        65904 |        65904 |        65904 |        65904 |xxxxxxxxxxxxx |xxxxxxxxxxxxx |xxxxxxxxxxxxx |       131440 |       131440 |       131440 |       131440 |xxxxxxxxxxxxx |xxxxxxxxxxxxx |xxxxxxxxxxxxx |       262512 |       262512 |       262512 |       262512 |xxxxxxxxxxxxx |xxxxxxxxxxxxx |xxxxxxxxxxxxx |       524656 |       524656 |       524656 |       524656 |xxxxxxxxxxxxx |xxxxxxxxxxxxx |xxxxxxxxxxxxx |      1048944 |      1048944 |      1048944 |      1048944 |xxxxxxxxxxxxx |xxxxxxxxxxxxx |xxxxxxxxxxxxx |      2097520 |      2097520 |      2097520 |      2097520 |xxxxxxxxxxxxx |xxxxxxxxxxxxx |xxxxxxxxxxxxx |      4194705 |      4194705 |      4194705 |      4194705 |xxxxxxxxxxxxx |xxxxxxxxxxxxx |xxxxxxxxxxxxx |      8389009 |      8389009 |      8389009 |      8389009 |
bpred_2lev.used_ras.PP               xxxxxxxxxxxxx |xxxxxxxxxxxxx |xxxxxxxxxxxxx |         8560 |         8560 |         8560 |         8560 |xxxxxxxxxxxxx |xxxxxxxxxxxxx |xxxxxxxxxxxxx |        16752 |        16752 |        16752 |        16752 |xxxxxxxxxxxxx |xxxxxxxxxxxxx |xxxxxxxxxxxxx |        33136 |        33136 |        33136 |        33136 |xxxxxxxxxxxxx |xxxxxxxxxxxxx |xxxxxxxxxxxxx |        65904 |        65904 |        65904 |        65904 |xxxxxxxxxxxxx |xxxxxxxxxxxxx |xxxxxxxxxxxxx |       131440 |       131440 |       131440 |       131440 |xxxxxxxxxxxxx |xxxxxxxxxxxxx |xxxxxxxxxxxxx |       262512 |       262512 |       262512 |       262512 |xxxxxxxxxxxxx |xxxxxxxxxxxxx |xxxxxxxxxxxxx |       524656 |       524656 |       524656 |       524656 |xxxxxxxxxxxxx |xxxxxxxxxxxxx |xxxxxxxxxxxxx |      1048944 |      1048944 |      1048944 |      1048944 |xxxxxxxxxxxxx |xxxxxxxxxxxxx |xxxxxxxxxxxxx |      2097520 |      2097520 |      2097520 |      2097520 |xxxxxxxxxxxxx |xxxxxxxxxxxxx |xxxxxxxxxxxxx |      4194705 |      4194705 |      4194705 |      4194705 |xxxxxxxxxxxxx |xxxxxxxxxxxxx |xxxxxxxxxxxxx |      8389009 |      8389009 |      8389009 |      8389009 |
bpred_2lev.ras_hits.PP               xxxxxxxxxxxxx |xxxxxxxxxxxxx |xxxxxxxxxxxxx |         8560 |         8560 |         8560 |         8560 |xxxxxxxxxxxxx |xxxxxxxxxxxxx |xxxxxxxxxxxxx |        16752 |        16752 |        16752 |        16752 |xxxxxxxxxxxxx |xxxxxxxxxxxxx |xxxxxxxxxxxxx |        33136 |        33136 |        33136 |        33136 |xxxxxxxxxxxxx |xxxxxxxxxxxxx |xxxxxxxxxxxxx |        65904 |        65904 |        65904 |        65904 |xxxxxxxxxxxxx |xxxxxxxxxxxxx |xxxxxxxxxxxxx |       131440 |       131440 |       131440 |       131440 |xxxxxxxxxxxxx |xxxxxxxxxxxxx |xxxxxxxxxxxxx |       262512 |       262512 |       262512 |       262512 |xxxxxxxxxxxxx |xxxxxxxxxxxxx |xxxxxxxxxxxxx |       524656 |       524656 |       524656 |       524656 |xxxxxxxxxxxxx |xxxxxxxxxxxxx |xxxxxxxxxxxxx |      1048944 |      1048944 |      1048944 |      1048944 |xxxxxxxxxxxxx |xxxxxxxxxxxxx |xxxxxxxxxxxxx |      2097520 |      2097520 |      2097520 |      2097520 |xxxxxxxxxxxxx |xxxxxxxxxxxxx |xxxxxxxxxxxxx |      4194705 |      4194705 |      4194705 |      4194705 |xxxxxxxxxxxxx |xxxxxxxxxxxxx |xxxxxxxxxxxxx |      8389009 |      8389009 |      8389009 |      8389009 |
bpred_2lev.ras_rate.PP               xxxxxxxxxxxxx |xxxxxxxxxxxxx |xxxxxxxxxxxxx |       1.0000 |       1.0000 |       1.0000 |       1.0000 |xxxxxxxxxxxxx |xxxxxxxxxxxxx |xxxxxxxxxxxxx |       1.0000 |       1.0000 |       1.0000 |       1.0000 |xxxxxxxxxxxxx |xxxxxxxxxxxxx |xxxxxxxxxxxxx |       1.0000 |       1.0000 |       1.0000 |       1.0000 |xxxxxxxxxxxxx |xxxxxxxxxxxxx |xxxxxxxxxxxxx |       1.0000 |       1.0000 |       1.0000 |       1.0000 |xxxxxxxxxxxxx |xxxxxxxxxxxxx |xxxxxxxxxxxxx |       1.0000 |       1.0000 |       1.0000 |       1.0000 |xxxxxxxxxxxxx |xxxxxxxxxxxxx |xxxxxxxxxxxxx |       1.0000 |       1.0000 |       1.0000 |       1.0000 |xxxxxxxxxxxxx |xxxxxxxxxxxxx |xxxxxxxxxxxxx |       1.0000 |       1.0000 |       1.0000 |       1.0000 |xxxxxxxxxxxxx |xxxxxxxxxxxxx |xxxxxxxxxxxxx |       1.0000 |       1.0000 |       1.0000 |       1.0000 |xxxxxxxxxxxxx |xxxxxxxxxxxxx |xxxxxxxxxxxxx |       1.0000 |       1.0000 |       1.0000 |       1.0000 |xxxxxxxxxxxxx |xxxxxxxxxxxxx |xxxxxxxxxxxxx |       1.0000 |       1.0000 |       1.0000 |       1.0000 |xxxxxxxxxxxxx |xxxxxxxxxxxxx |xxxxxxxxxxxxx |       1.0000 |       1.0000 |       1.0000 |       1.0000 |

Command list: 
	sslittle-na-sstrix-gcc -Wall -O3 -funroll-loops -finline-functions  -DRANDOM_SIZE=4096 -DSEED=0 -DSORT=multi_quicksort multi_quicksort352794311.c simpleMain.c -o multi_quicksort1854178981
	sim-cache -cache:dl1 dl1:256:32:1:l -cache:dl2 dl2:131072:32:1:l -cache:il1 il1:256:32:1:l -cache:il2 dl2 multi_quicksort1854178981
	sim-cache -cache:dl1 dl1:256:32:1:l -cache:dl2 dl2:65536:32:1:l -cache:il1 il1:256:32:1:l -cache:il2 dl2 multi_quicksort1854178981
	sim-cache -cache:dl1 dl1:1:32:256:l -cache:dl2 dl2:1:32:131072:l -cache:il1 il1:1:32:256:l -cache:il2 dl2 multi_quicksort1854178981
	sim-cache -cache:dl1 dl1:1:32:256:l -cache:dl2 dl2:1:32:65536:l -cache:il1 il1:1:32:256:l -cache:il2 dl2 multi_quicksort1854178981
	sim-bpred -bpred bimod -bpred:bimod 512 multi_quicksort1854178981
	sim-bpred -bpred bimod -bpred:bimod 1024 multi_quicksort1854178981
	sim-bpred -bpred bimod -bpred:bimod 2048 multi_quicksort1854178981
	sim-bpred -bpred 2lev -bpred:2lev 1 512 10 1 multi_quicksort1854178981
	sim-bpred -bpred 2lev -bpred:2lev 1 1024 10 1 multi_quicksort1854178981
	sim-bpred -bpred 2lev -bpred:2lev 1 2048 10 1 multi_quicksort1854178981
	sim-bpred -bpred 2lev -bpred:2lev 1 4096 10 1 multi_quicksort1854178981
	sslittle-na-sstrix-gcc -Wall -O3 -funroll-loops -finline-functions  -DRANDOM_SIZE=8192 -DSEED=0 -DSORT=multi_quicksort multi_quicksort352794311.c simpleMain.c -o multi_quicksort1854178981
	sim-cache -cache:dl1 dl1:256:32:1:l -cache:dl2 dl2:131072:32:1:l -cache:il1 il1:256:32:1:l -cache:il2 dl2 multi_quicksort1854178981
	sim-cache -cache:dl1 dl1:256:32:1:l -cache:dl2 dl2:65536:32:1:l -cache:il1 il1:256:32:1:l -cache:il2 dl2 multi_quicksort1854178981
	sim-cache -cache:dl1 dl1:1:32:256:l -cache:dl2 dl2:1:32:131072:l -cache:il1 il1:1:32:256:l -cache:il2 dl2 multi_quicksort1854178981
	sim-cache -cache:dl1 dl1:1:32:256:l -cache:dl2 dl2:1:32:65536:l -cache:il1 il1:1:32:256:l -cache:il2 dl2 multi_quicksort1854178981
	sim-bpred -bpred bimod -bpred:bimod 512 multi_quicksort1854178981
	sim-bpred -bpred bimod -bpred:bimod 1024 multi_quicksort1854178981
	sim-bpred -bpred bimod -bpred:bimod 2048 multi_quicksort1854178981
	sim-bpred -bpred 2lev -bpred:2lev 1 512 10 1 multi_quicksort1854178981
	sim-bpred -bpred 2lev -bpred:2lev 1 1024 10 1 multi_quicksort1854178981
	sim-bpred -bpred 2lev -bpred:2lev 1 2048 10 1 multi_quicksort1854178981
	sim-bpred -bpred 2lev -bpred:2lev 1 4096 10 1 multi_quicksort1854178981
	sslittle-na-sstrix-gcc -Wall -O3 -funroll-loops -finline-functions  -DRANDOM_SIZE=16384 -DSEED=0 -DSORT=multi_quicksort multi_quicksort352794311.c simpleMain.c -o multi_quicksort1854178981
	sim-cache -cache:dl1 dl1:256:32:1:l -cache:dl2 dl2:131072:32:1:l -cache:il1 il1:256:32:1:l -cache:il2 dl2 multi_quicksort1854178981
	sim-cache -cache:dl1 dl1:256:32:1:l -cache:dl2 dl2:65536:32:1:l -cache:il1 il1:256:32:1:l -cache:il2 dl2 multi_quicksort1854178981
	sim-cache -cache:dl1 dl1:1:32:256:l -cache:dl2 dl2:1:32:131072:l -cache:il1 il1:1:32:256:l -cache:il2 dl2 multi_quicksort1854178981
	sim-cache -cache:dl1 dl1:1:32:256:l -cache:dl2 dl2:1:32:65536:l -cache:il1 il1:1:32:256:l -cache:il2 dl2 multi_quicksort1854178981
	sim-bpred -bpred bimod -bpred:bimod 512 multi_quicksort1854178981
	sim-bpred -bpred bimod -bpred:bimod 1024 multi_quicksort1854178981
	sim-bpred -bpred bimod -bpred:bimod 2048 multi_quicksort1854178981
	sim-bpred -bpred 2lev -bpred:2lev 1 512 10 1 multi_quicksort1854178981
	sim-bpred -bpred 2lev -bpred:2lev 1 1024 10 1 multi_quicksort1854178981
	sim-bpred -bpred 2lev -bpred:2lev 1 2048 10 1 multi_quicksort1854178981
	sim-bpred -bpred 2lev -bpred:2lev 1 4096 10 1 multi_quicksort1854178981
	sslittle-na-sstrix-gcc -Wall -O3 -funroll-loops -finline-functions  -DRANDOM_SIZE=32768 -DSEED=0 -DSORT=multi_quicksort multi_quicksort352794311.c simpleMain.c -o multi_quicksort1854178981
	sim-cache -cache:dl1 dl1:256:32:1:l -cache:dl2 dl2:131072:32:1:l -cache:il1 il1:256:32:1:l -cache:il2 dl2 multi_quicksort1854178981
	sim-cache -cache:dl1 dl1:256:32:1:l -cache:dl2 dl2:65536:32:1:l -cache:il1 il1:256:32:1:l -cache:il2 dl2 multi_quicksort1854178981
	sim-cache -cache:dl1 dl1:1:32:256:l -cache:dl2 dl2:1:32:131072:l -cache:il1 il1:1:32:256:l -cache:il2 dl2 multi_quicksort1854178981
	sim-cache -cache:dl1 dl1:1:32:256:l -cache:dl2 dl2:1:32:65536:l -cache:il1 il1:1:32:256:l -cache:il2 dl2 multi_quicksort1854178981
	sim-bpred -bpred bimod -bpred:bimod 512 multi_quicksort1854178981
	sim-bpred -bpred bimod -bpred:bimod 1024 multi_quicksort1854178981
	sim-bpred -bpred bimod -bpred:bimod 2048 multi_quicksort1854178981
	sim-bpred -bpred 2lev -bpred:2lev 1 512 10 1 multi_quicksort1854178981
	sim-bpred -bpred 2lev -bpred:2lev 1 1024 10 1 multi_quicksort1854178981
	sim-bpred -bpred 2lev -bpred:2lev 1 2048 10 1 multi_quicksort1854178981
	sim-bpred -bpred 2lev -bpred:2lev 1 4096 10 1 multi_quicksort1854178981
	sslittle-na-sstrix-gcc -Wall -O3 -funroll-loops -finline-functions  -DRANDOM_SIZE=65536 -DSEED=0 -DSORT=multi_quicksort multi_quicksort352794311.c simpleMain.c -o multi_quicksort1854178981
	sim-cache -cache:dl1 dl1:256:32:1:l -cache:dl2 dl2:131072:32:1:l -cache:il1 il1:256:32:1:l -cache:il2 dl2 multi_quicksort1854178981
	sim-cache -cache:dl1 dl1:256:32:1:l -cache:dl2 dl2:65536:32:1:l -cache:il1 il1:256:32:1:l -cache:il2 dl2 multi_quicksort1854178981
	sim-cache -cache:dl1 dl1:1:32:256:l -cache:dl2 dl2:1:32:131072:l -cache:il1 il1:1:32:256:l -cache:il2 dl2 multi_quicksort1854178981
	sim-cache -cache:dl1 dl1:1:32:256:l -cache:dl2 dl2:1:32:65536:l -cache:il1 il1:1:32:256:l -cache:il2 dl2 multi_quicksort1854178981
	sim-bpred -bpred bimod -bpred:bimod 512 multi_quicksort1854178981
	sim-bpred -bpred bimod -bpred:bimod 1024 multi_quicksort1854178981
	sim-bpred -bpred bimod -bpred:bimod 2048 multi_quicksort1854178981
	sim-bpred -bpred 2lev -bpred:2lev 1 512 10 1 multi_quicksort1854178981
	sim-bpred -bpred 2lev -bpred:2lev 1 1024 10 1 multi_quicksort1854178981
	sim-bpred -bpred 2lev -bpred:2lev 1 2048 10 1 multi_quicksort1854178981
	sim-bpred -bpred 2lev -bpred:2lev 1 4096 10 1 multi_quicksort1854178981
	sslittle-na-sstrix-gcc -Wall -O3 -funroll-loops -finline-functions  -DRANDOM_SIZE=131072 -DSEED=0 -DSORT=multi_quicksort multi_quicksort352794311.c simpleMain.c -o multi_quicksort1854178981
	sim-cache -cache:dl1 dl1:256:32:1:l -cache:dl2 dl2:131072:32:1:l -cache:il1 il1:256:32:1:l -cache:il2 dl2 multi_quicksort1854178981
	sim-cache -cache:dl1 dl1:256:32:1:l -cache:dl2 dl2:65536:32:1:l -cache:il1 il1:256:32:1:l -cache:il2 dl2 multi_quicksort1854178981
	sim-cache -cache:dl1 dl1:1:32:256:l -cache:dl2 dl2:1:32:131072:l -cache:il1 il1:1:32:256:l -cache:il2 dl2 multi_quicksort1854178981
	sim-cache -cache:dl1 dl1:1:32:256:l -cache:dl2 dl2:1:32:65536:l -cache:il1 il1:1:32:256:l -cache:il2 dl2 multi_quicksort1854178981
	sim-bpred -bpred bimod -bpred:bimod 512 multi_quicksort1854178981
	sim-bpred -bpred bimod -bpred:bimod 1024 multi_quicksort1854178981
	sim-bpred -bpred bimod -bpred:bimod 2048 multi_quicksort1854178981
	sim-bpred -bpred 2lev -bpred:2lev 1 512 10 1 multi_quicksort1854178981
	sim-bpred -bpred 2lev -bpred:2lev 1 1024 10 1 multi_quicksort1854178981
	sim-bpred -bpred 2lev -bpred:2lev 1 2048 10 1 multi_quicksort1854178981
	sim-bpred -bpred 2lev -bpred:2lev 1 4096 10 1 multi_quicksort1854178981
	sslittle-na-sstrix-gcc -Wall -O3 -funroll-loops -finline-functions  -DRANDOM_SIZE=262144 -DSEED=0 -DSORT=multi_quicksort multi_quicksort352794311.c simpleMain.c -o multi_quicksort1854178981
	sim-cache -cache:dl1 dl1:256:32:1:l -cache:dl2 dl2:131072:32:1:l -cache:il1 il1:256:32:1:l -cache:il2 dl2 multi_quicksort1854178981
	sim-cache -cache:dl1 dl1:256:32:1:l -cache:dl2 dl2:65536:32:1:l -cache:il1 il1:256:32:1:l -cache:il2 dl2 multi_quicksort1854178981
	sim-cache -cache:dl1 dl1:1:32:256:l -cache:dl2 dl2:1:32:131072:l -cache:il1 il1:1:32:256:l -cache:il2 dl2 multi_quicksort1854178981
	sim-cache -cache:dl1 dl1:1:32:256:l -cache:dl2 dl2:1:32:65536:l -cache:il1 il1:1:32:256:l -cache:il2 dl2 multi_quicksort1854178981
	sim-bpred -bpred bimod -bpred:bimod 512 multi_quicksort1854178981
	sim-bpred -bpred bimod -bpred:bimod 1024 multi_quicksort1854178981
	sim-bpred -bpred bimod -bpred:bimod 2048 multi_quicksort1854178981
	sim-bpred -bpred 2lev -bpred:2lev 1 512 10 1 multi_quicksort1854178981
	sim-bpred -bpred 2lev -bpred:2lev 1 1024 10 1 multi_quicksort1854178981
	sim-bpred -bpred 2lev -bpred:2lev 1 2048 10 1 multi_quicksort1854178981
	sim-bpred -bpred 2lev -bpred:2lev 1 4096 10 1 multi_quicksort1854178981
	sslittle-na-sstrix-gcc -Wall -O3 -funroll-loops -finline-functions  -DRANDOM_SIZE=524288 -DSEED=0 -DSORT=multi_quicksort multi_quicksort352794311.c simpleMain.c -o multi_quicksort1854178981
	sim-cache -cache:dl1 dl1:256:32:1:l -cache:dl2 dl2:131072:32:1:l -cache:il1 il1:256:32:1:l -cache:il2 dl2 multi_quicksort1854178981
	sim-cache -cache:dl1 dl1:256:32:1:l -cache:dl2 dl2:65536:32:1:l -cache:il1 il1:256:32:1:l -cache:il2 dl2 multi_quicksort1854178981
	sim-cache -cache:dl1 dl1:1:32:256:l -cache:dl2 dl2:1:32:131072:l -cache:il1 il1:1:32:256:l -cache:il2 dl2 multi_quicksort1854178981
	sim-cache -cache:dl1 dl1:1:32:256:l -cache:dl2 dl2:1:32:65536:l -cache:il1 il1:1:32:256:l -cache:il2 dl2 multi_quicksort1854178981
	sim-bpred -bpred bimod -bpred:bimod 512 multi_quicksort1854178981
	sim-bpred -bpred bimod -bpred:bimod 1024 multi_quicksort1854178981
	sim-bpred -bpred bimod -bpred:bimod 2048 multi_quicksort1854178981
	sim-bpred -bpred 2lev -bpred:2lev 1 512 10 1 multi_quicksort1854178981
	sim-bpred -bpred 2lev -bpred:2lev 1 1024 10 1 multi_quicksort1854178981
	sim-bpred -bpred 2lev -bpred:2lev 1 2048 10 1 multi_quicksort1854178981
	sim-bpred -bpred 2lev -bpred:2lev 1 4096 10 1 multi_quicksort1854178981
	sslittle-na-sstrix-gcc -Wall -O3 -funroll-loops -finline-functions  -DRANDOM_SIZE=1048576 -DSEED=0 -DSORT=multi_quicksort multi_quicksort352794311.c simpleMain.c -o multi_quicksort1854178981
	sim-cache -cache:dl1 dl1:256:32:1:l -cache:dl2 dl2:131072:32:1:l -cache:il1 il1:256:32:1:l -cache:il2 dl2 multi_quicksort1854178981
	sim-cache -cache:dl1 dl1:256:32:1:l -cache:dl2 dl2:65536:32:1:l -cache:il1 il1:256:32:1:l -cache:il2 dl2 multi_quicksort1854178981
	sim-cache -cache:dl1 dl1:1:32:256:l -cache:dl2 dl2:1:32:131072:l -cache:il1 il1:1:32:256:l -cache:il2 dl2 multi_quicksort1854178981
	sim-cache -cache:dl1 dl1:1:32:256:l -cache:dl2 dl2:1:32:65536:l -cache:il1 il1:1:32:256:l -cache:il2 dl2 multi_quicksort1854178981
	sim-bpred -bpred bimod -bpred:bimod 512 multi_quicksort1854178981
	sim-bpred -bpred bimod -bpred:bimod 1024 multi_quicksort1854178981
	sim-bpred -bpred bimod -bpred:bimod 2048 multi_quicksort1854178981
	sim-bpred -bpred 2lev -bpred:2lev 1 512 10 1 multi_quicksort1854178981
	sim-bpred -bpred 2lev -bpred:2lev 1 1024 10 1 multi_quicksort1854178981
	sim-bpred -bpred 2lev -bpred:2lev 1 2048 10 1 multi_quicksort1854178981
	sim-bpred -bpred 2lev -bpred:2lev 1 4096 10 1 multi_quicksort1854178981
	sslittle-na-sstrix-gcc -Wall -O3 -funroll-loops -finline-functions  -DRANDOM_SIZE=2097152 -DSEED=0 -DSORT=multi_quicksort multi_quicksort352794311.c simpleMain.c -o multi_quicksort1854178981
	sim-cache -cache:dl1 dl1:256:32:1:l -cache:dl2 dl2:131072:32:1:l -cache:il1 il1:256:32:1:l -cache:il2 dl2 multi_quicksort1854178981
	sim-cache -cache:dl1 dl1:256:32:1:l -cache:dl2 dl2:65536:32:1:l -cache:il1 il1:256:32:1:l -cache:il2 dl2 multi_quicksort1854178981
	sim-cache -cache:dl1 dl1:1:32:256:l -cache:dl2 dl2:1:32:131072:l -cache:il1 il1:1:32:256:l -cache:il2 dl2 multi_quicksort1854178981
	sim-cache -cache:dl1 dl1:1:32:256:l -cache:dl2 dl2:1:32:65536:l -cache:il1 il1:1:32:256:l -cache:il2 dl2 multi_quicksort1854178981
	sim-bpred -bpred bimod -bpred:bimod 512 multi_quicksort1854178981
	sim-bpred -bpred bimod -bpred:bimod 1024 multi_quicksort1854178981
	sim-bpred -bpred bimod -bpred:bimod 2048 multi_quicksort1854178981
	sim-bpred -bpred 2lev -bpred:2lev 1 512 10 1 multi_quicksort1854178981
	sim-bpred -bpred 2lev -bpred:2lev 1 1024 10 1 multi_quicksort1854178981
	sim-bpred -bpred 2lev -bpred:2lev 1 2048 10 1 multi_quicksort1854178981
	sim-bpred -bpred 2lev -bpred:2lev 1 4096 10 1 multi_quicksort1854178981
	sslittle-na-sstrix-gcc -Wall -O3 -funroll-loops -finline-functions  -DRANDOM_SIZE=4194304 -DSEED=0 -DSORT=multi_quicksort multi_quicksort352794311.c simpleMain.c -o multi_quicksort1854178981
	sim-cache -cache:dl1 dl1:256:32:1:l -cache:dl2 dl2:131072:32:1:l -cache:il1 il1:256:32:1:l -cache:il2 dl2 multi_quicksort1854178981
	sim-cache -cache:dl1 dl1:256:32:1:l -cache:dl2 dl2:65536:32:1:l -cache:il1 il1:256:32:1:l -cache:il2 dl2 multi_quicksort1854178981
	sim-cache -cache:dl1 dl1:1:32:256:l -cache:dl2 dl2:1:32:131072:l -cache:il1 il1:1:32:256:l -cache:il2 dl2 multi_quicksort1854178981
	sim-cache -cache:dl1 dl1:1:32:256:l -cache:dl2 dl2:1:32:65536:l -cache:il1 il1:1:32:256:l -cache:il2 dl2 multi_quicksort1854178981
	sim-bpred -bpred bimod -bpred:bimod 512 multi_quicksort1854178981
	sim-bpred -bpred bimod -bpred:bimod 1024 multi_quicksort1854178981
	sim-bpred -bpred bimod -bpred:bimod 2048 multi_quicksort1854178981
	sim-bpred -bpred 2lev -bpred:2lev 1 512 10 1 multi_quicksort1854178981
	sim-bpred -bpred 2lev -bpred:2lev 1 1024 10 1 multi_quicksort1854178981
	sim-bpred -bpred 2lev -bpred:2lev 1 2048 10 1 multi_quicksort1854178981
	sim-bpred -bpred 2lev -bpred:2lev 1 4096 10 1 multi_quicksort1854178981
