Fri Apr  2 21:11:57 2004
Run as: "./simple -c really_last time multi_mergesort"
-------------------------------------------------------------------------------------------------
sim-cache                                     4096 |         4096 |         4096 |         4096 |         8192 |         8192 |         8192 |         8192 |        16384 |        16384 |        16384 |        16384 |        32768 |        32768 |        32768 |        32768 |        65536 |        65536 |        65536 |        65536 |       131072 |       131072 |       131072 |       131072 |       262144 |       262144 |       262144 |       262144 |       524288 |       524288 |       524288 |       524288 |      1048576 |      1048576 |      1048576 |      1048576 |      2097152 |      2097152 |      2097152 |      2097152 |      4194304 |      4194304 |      4194304 |      4194304 |
-cache:dl1 dl1:256:32:1:l -cache:dl2 dl2:131072:32:1:l -cache:il1 il1:256:32:1:l -cache:il2 dl2
-cache:dl1 dl1:256:32:1:l -cache:dl2 dl2:65536:32:1:l -cache:il1 il1:256:32:1:l -cache:il2 dl2
-cache:dl1 dl1:1:32:256:l -cache:dl2 dl2:1:32:131072:l -cache:il1 il1:1:32:256:l -cache:il2 dl2
-cache:dl1 dl1:1:32:256:l -cache:dl2 dl2:1:32:65536:l -cache:il1 il1:1:32:256:l -cache:il2 dl2
-------------------------------------------------------------------------------------------------
sim_num_insn                                960846 |       960846 |       960846 |       960846 |      2024277 |      2024277 |      2024277 |      2024277 |      4351532 |      4351532 |      4351532 |      4351532 |      9161623 |      9161623 |      9161623 |      9161623 |     19589868 |     19589868 |     19589868 |     19589868 |     41092859 |     41092859 |     41092859 |     41092859 |     87272211 |     87272211 |     87272211 |     87272211 |    235361242 |    235361242 |    235361242 |    235361242 |    509082502 |    509082502 |    509082502 |    509082502 |   1080817715 |   1080817715 |   1080817715 |   1080817715 |   2319303910 |   2319303910 |   2319303910 |   2319303910 |
sim_num_refs                                315113 |       315113 |       315113 |       315113 |       646882 |       646882 |       646882 |       646882 |      1400535 |      1400535 |      1400535 |      1400535 |      2891468 |      2891468 |      2891468 |      2891468 |      6235022 |      6235022 |      6235022 |      6235022 |     12862478 |     12862478 |     12862478 |     12862478 |     27549336 |     27549336 |     27549336 |     27549336 |     71140522 |     71140522 |     71140522 |     71140522 |    153174194 |    153174194 |    153174194 |    153174194 |    325238595 |    325238595 |    325238595 |    325238595 |    701383980 |    701383980 |    701383980 |    701383980 |
sim_elapsed_time                                 1 |            1 |           38 |           19 |            3 |            2 |           59 |           31 |            5 |            5 |          101 |           52 |           10 |            9 |          183 |           94 |           21 |           21 |          340 |          171 |           44 |           43 |          627 |          296 |           92 |           93 |         1082 |          445 |          250 |          252 |         1560 |          593 |          540 |          537 |         1854 |          898 |         1148 |         1147 |         2501 |         1549 |         1841 |         1838 |         2502 |         1471 |
sim_inst_rate                          960846.0000 |  960846.0000 |   25285.4211 |   50570.8421 |  674759.0000 | 1012138.5000 |   34309.7797 |   65299.2581 |  870306.4000 |  870306.4000 |   43084.4752 |   83683.3077 |  916162.3000 | 1017958.1111 |   50063.5137 |   97464.0745 |  932850.8571 |  932850.8571 |   57617.2588 |  114560.6316 |  933928.6136 |  955647.8837 |   65538.8501 |  138827.2264 |  948610.9891 |  938410.8710 |   80658.2357 |  196117.3281 |  941444.9680 |  933973.1825 |  150872.5910 |  396899.2277 |  942745.3741 |  948012.1080 |  274586.0313 |  566907.0178 |  941478.8458 |  942299.6643 |  432154.2243 |  697751.9141 | 1259806.5779 | 1261862.8455 |  926979.9800 | 1576685.1869 |
il1.accesses                                960846 |       960846 |       960846 |       960846 |      2024277 |      2024277 |      2024277 |      2024277 |      4351532 |      4351532 |      4351532 |      4351532 |      9161623 |      9161623 |      9161623 |      9161623 |     19589868 |     19589868 |     19589868 |     19589868 |     41092859 |     41092859 |     41092859 |     41092859 |     87272211 |     87272211 |     87272211 |     87272211 |    235361242 |    235361242 |    235361242 |    235361242 |    509082502 |    509082502 |    509082502 |    509082502 |   1080817715 |   1080817715 |   1080817715 |   1080817715 |   2319303910 |   2319303910 |   2319303910 |   2319303910 |
il1.hits                                    960320 |       960320 |       960350 |       960350 |      2023767 |      2023767 |      2023809 |      2023809 |      4350988 |      4350988 |      4351020 |      4351020 |      9161107 |      9161107 |      9161147 |      9161147 |     19589324 |     19589324 |     19589354 |     19589354 |     41092341 |     41092341 |     41092382 |     41092382 |     87271667 |     87271667 |     87271697 |     87271697 |    230969601 |    230969601 |    235360484 |    235360484 |    500168761 |    500168761 |    509081718 |    509081718 |   1062991066 |   1062991066 |   1080816927 |   1080816927 |   2283651461 |   2283651461 |   2319303122 |   2319303122 |
il1.misses                                     526 |          526 |          496 |          496 |          510 |          510 |          468 |          468 |          544 |          544 |          512 |          512 |          516 |          516 |          476 |          476 |          544 |          544 |          514 |          514 |          518 |          518 |          477 |          477 |          544 |          544 |          514 |          514 |      4391641 |      4391641 |          758 |          758 |      8913741 |      8913741 |          784 |          784 |     17826649 |     17826649 |          788 |          788 |     35652449 |     35652449 |          788 |          788 |
il1.replacements                               291 |          291 |          240 |          240 |          279 |          279 |          212 |          212 |          306 |          306 |          256 |          256 |          283 |          283 |          220 |          220 |          307 |          307 |          258 |          258 |          285 |          285 |          221 |          221 |          307 |          307 |          258 |          258 |      4391385 |      4391385 |          502 |          502 |      8913485 |      8913485 |          528 |          528 |     17826393 |     17826393 |          532 |          532 |     35652193 |     35652193 |          532 |          532 |
il1.writebacks                                   0 |            0 |            0 |            0 |            0 |            0 |            0 |            0 |            0 |            0 |            0 |            0 |            0 |            0 |            0 |            0 |            0 |            0 |            0 |            0 |            0 |            0 |            0 |            0 |            0 |            0 |            0 |            0 |            0 |            0 |            0 |            0 |            0 |            0 |            0 |            0 |            0 |            0 |            0 |            0 |            0 |            0 |            0 |            0 |
il1.invalidations                                0 |            0 |            0 |            0 |            0 |            0 |            0 |            0 |            0 |            0 |            0 |            0 |            0 |            0 |            0 |            0 |            0 |            0 |            0 |            0 |            0 |            0 |            0 |            0 |            0 |            0 |            0 |            0 |            0 |            0 |            0 |            0 |            0 |            0 |            0 |            0 |            0 |            0 |            0 |            0 |            0 |            0 |            0 |            0 |
il1.miss_rate                               0.0005 |       0.0005 |       0.0005 |       0.0005 |       0.0003 |       0.0003 |       0.0002 |       0.0002 |       0.0001 |       0.0001 |       0.0001 |       0.0001 |       0.0001 |       0.0001 |       0.0001 |       0.0001 |       0.0000 |       0.0000 |       0.0000 |       0.0000 |       0.0000 |       0.0000 |       0.0000 |       0.0000 |       0.0000 |       0.0000 |       0.0000 |       0.0000 |       0.0187 |       0.0187 |       0.0000 |       0.0000 |       0.0175 |       0.0175 |       0.0000 |       0.0000 |       0.0165 |       0.0165 |       0.0000 |       0.0000 |       0.0154 |       0.0154 |       0.0000 |       0.0000 |
il1.repl_rate                               0.0003 |       0.0003 |       0.0002 |       0.0002 |       0.0001 |       0.0001 |       0.0001 |       0.0001 |       0.0001 |       0.0001 |       0.0001 |       0.0001 |       0.0000 |       0.0000 |       0.0000 |       0.0000 |       0.0000 |       0.0000 |       0.0000 |       0.0000 |       0.0000 |       0.0000 |       0.0000 |       0.0000 |       0.0000 |       0.0000 |       0.0000 |       0.0000 |       0.0187 |       0.0187 |       0.0000 |       0.0000 |       0.0175 |       0.0175 |       0.0000 |       0.0000 |       0.0165 |       0.0165 |       0.0000 |       0.0000 |       0.0154 |       0.0154 |       0.0000 |       0.0000 |
il1.wb_rate                                 0.0000 |       0.0000 |       0.0000 |       0.0000 |       0.0000 |       0.0000 |       0.0000 |       0.0000 |       0.0000 |       0.0000 |       0.0000 |       0.0000 |       0.0000 |       0.0000 |       0.0000 |       0.0000 |       0.0000 |       0.0000 |       0.0000 |       0.0000 |       0.0000 |       0.0000 |       0.0000 |       0.0000 |       0.0000 |       0.0000 |       0.0000 |       0.0000 |       0.0000 |       0.0000 |       0.0000 |       0.0000 |       0.0000 |       0.0000 |       0.0000 |       0.0000 |       0.0000 |       0.0000 |       0.0000 |       0.0000 |       0.0000 |       0.0000 |       0.0000 |       0.0000 |
il1.inv_rate                                0.0000 |       0.0000 |       0.0000 |       0.0000 |       0.0000 |       0.0000 |       0.0000 |       0.0000 |       0.0000 |       0.0000 |       0.0000 |       0.0000 |       0.0000 |       0.0000 |       0.0000 |       0.0000 |       0.0000 |       0.0000 |       0.0000 |       0.0000 |       0.0000 |       0.0000 |       0.0000 |       0.0000 |       0.0000 |       0.0000 |       0.0000 |       0.0000 |       0.0000 |       0.0000 |       0.0000 |       0.0000 |       0.0000 |       0.0000 |       0.0000 |       0.0000 |       0.0000 |       0.0000 |       0.0000 |       0.0000 |       0.0000 |       0.0000 |       0.0000 |       0.0000 |
dl1.accesses                                315183 |       315183 |       315183 |       315183 |       646952 |       646952 |       646952 |       646952 |      1400605 |      1400605 |      1400605 |      1400605 |      2891538 |      2891538 |      2891538 |      2891538 |      6235092 |      6235092 |      6235092 |      6235092 |     12862548 |     12862548 |     12862548 |     12862548 |     27549406 |     27549406 |     27549406 |     27549406 |     71140592 |     71140592 |     71140592 |     71140592 |    153174264 |    153174264 |    153174264 |    153174264 |    325238665 |    325238665 |    325238665 |    325238665 |    701384050 |    701384050 |    701384050 |    701384050 |
dl1.hits                                    296667 |       296667 |       301394 |       301394 |       609909 |       609909 |       619847 |       619847 |      1318134 |      1318134 |      1338664 |      1338664 |      2726209 |      2726209 |      2768129 |      2768129 |      5869333 |      5869333 |      5955967 |      5955967 |     12127111 |     12127111 |     12304771 |     12304771 |     25937101 |     25937101 |     26303241 |     26303241 |     67746149 |     67746149 |     68646962 |     68646962 |    146379745 |    146379745 |    148189253 |    148189253 |    311633304 |    311633304 |    315269973 |    315269973 |    674136715 |    674136715 |    681446867 |    681446867 |
dl1.misses                                   18516 |        18516 |        13789 |        13789 |        37043 |        37043 |        27105 |        27105 |        82471 |        82471 |        61941 |        61941 |       165329 |       165329 |       123409 |       123409 |       365759 |       365759 |       279125 |       279125 |       735437 |       735437 |       557777 |       557777 |      1612305 |      1612305 |      1246165 |      1246165 |      3394443 |      3394443 |      2493630 |      2493630 |      6794519 |      6794519 |      4985011 |      4985011 |     13605361 |     13605361 |      9968692 |      9968692 |     27247335 |     27247335 |     19937183 |     19937183 |
dl1.replacements                             18260 |        18260 |        13533 |        13533 |        36787 |        36787 |        26849 |        26849 |        82215 |        82215 |        61685 |        61685 |       165073 |       165073 |       123153 |       123153 |       365503 |       365503 |       278869 |       278869 |       735181 |       735181 |       557521 |       557521 |      1612049 |      1612049 |      1245909 |      1245909 |      3394187 |      3394187 |      2493374 |      2493374 |      6794263 |      6794263 |      4984755 |      4984755 |     13605105 |     13605105 |      9968436 |      9968436 |     27247079 |     27247079 |     19936927 |     19936927 |
dl1.writebacks                                9454 |         9454 |         7484 |         7484 |        18816 |        18816 |        14656 |        14656 |        41782 |        41782 |        33100 |        33100 |        83356 |        83356 |        65887 |        65887 |       183441 |       183441 |       147851 |       147851 |       367819 |       367819 |       295388 |       295388 |       803465 |       803465 |       656007 |       656007 |      1759284 |      1759284 |      1312896 |      1312896 |      3524305 |      3524305 |      2624273 |      2624273 |      7064765 |      7064765 |      5247985 |      5247985 |     14172175 |     14172175 |     10496451 |     10496451 |
dl1.invalidations                                0 |            0 |            0 |            0 |            0 |            0 |            0 |            0 |            0 |            0 |            0 |            0 |            0 |            0 |            0 |            0 |            0 |            0 |            0 |            0 |            0 |            0 |            0 |            0 |            0 |            0 |            0 |            0 |            0 |            0 |            0 |            0 |            0 |            0 |            0 |            0 |            0 |            0 |            0 |            0 |            0 |            0 |            0 |            0 |
dl1.miss_rate                               0.0587 |       0.0587 |       0.0437 |       0.0437 |       0.0573 |       0.0573 |       0.0419 |       0.0419 |       0.0589 |       0.0589 |       0.0442 |       0.0442 |       0.0572 |       0.0572 |       0.0427 |       0.0427 |       0.0587 |       0.0587 |       0.0448 |       0.0448 |       0.0572 |       0.0572 |       0.0434 |       0.0434 |       0.0585 |       0.0585 |       0.0452 |       0.0452 |       0.0477 |       0.0477 |       0.0351 |       0.0351 |       0.0444 |       0.0444 |       0.0325 |       0.0325 |       0.0418 |       0.0418 |       0.0307 |       0.0307 |       0.0388 |       0.0388 |       0.0284 |       0.0284 |
dl1.repl_rate                               0.0579 |       0.0579 |       0.0429 |       0.0429 |       0.0569 |       0.0569 |       0.0415 |       0.0415 |       0.0587 |       0.0587 |       0.0440 |       0.0440 |       0.0571 |       0.0571 |       0.0426 |       0.0426 |       0.0586 |       0.0586 |       0.0447 |       0.0447 |       0.0572 |       0.0572 |       0.0433 |       0.0433 |       0.0585 |       0.0585 |       0.0452 |       0.0452 |       0.0477 |       0.0477 |       0.0350 |       0.0350 |       0.0444 |       0.0444 |       0.0325 |       0.0325 |       0.0418 |       0.0418 |       0.0306 |       0.0306 |       0.0388 |       0.0388 |       0.0284 |       0.0284 |
dl1.wb_rate                                 0.0300 |       0.0300 |       0.0237 |       0.0237 |       0.0291 |       0.0291 |       0.0227 |       0.0227 |       0.0298 |       0.0298 |       0.0236 |       0.0236 |       0.0288 |       0.0288 |       0.0228 |       0.0228 |       0.0294 |       0.0294 |       0.0237 |       0.0237 |       0.0286 |       0.0286 |       0.0230 |       0.0230 |       0.0292 |       0.0292 |       0.0238 |       0.0238 |       0.0247 |       0.0247 |       0.0185 |       0.0185 |       0.0230 |       0.0230 |       0.0171 |       0.0171 |       0.0217 |       0.0217 |       0.0161 |       0.0161 |       0.0202 |       0.0202 |       0.0150 |       0.0150 |
dl1.inv_rate                                0.0000 |       0.0000 |       0.0000 |       0.0000 |       0.0000 |       0.0000 |       0.0000 |       0.0000 |       0.0000 |       0.0000 |       0.0000 |       0.0000 |       0.0000 |       0.0000 |       0.0000 |       0.0000 |       0.0000 |       0.0000 |       0.0000 |       0.0000 |       0.0000 |       0.0000 |       0.0000 |       0.0000 |       0.0000 |       0.0000 |       0.0000 |       0.0000 |       0.0000 |       0.0000 |       0.0000 |       0.0000 |       0.0000 |       0.0000 |       0.0000 |       0.0000 |       0.0000 |       0.0000 |       0.0000 |       0.0000 |       0.0000 |       0.0000 |       0.0000 |       0.0000 |
dl2.accesses                                 28496 |        28496 |        21769 |        21769 |        56369 |        56369 |        42229 |        42229 |       124797 |       124797 |        95553 |        95553 |       249201 |       249201 |       189772 |       189772 |       549744 |       549744 |       427490 |       427490 |      1103774 |      1103774 |       853642 |       853642 |      2416314 |      2416314 |      1902686 |      1902686 |      9545368 |      9545368 |      3807284 |      3807284 |     19232565 |     19232565 |      7610068 |      7610068 |     38496775 |     38496775 |     15217465 |     15217465 |     77071959 |     77071959 |     30434422 |     30434422 |
dl2.hits                                     26585 |        26585 |        19874 |        19874 |        53453 |        53453 |        39330 |        39330 |       119800 |       119800 |        90575 |        90575 |       240134 |       240134 |       180723 |       180723 |       532457 |       532457 |       410222 |       410222 |      1070130 |      1070130 |       820016 |       820016 |      2349875 |      1338602 |      1836266 |      1707053 |      9408519 |      7418405 |      3639213 |      3300990 |     14956956 |     14765291 |      6963039 |      6608529 |     29556511 |     29546269 |     13908255 |     13224915 |     59166553 |     59161922 |     27810615 |     26459948 |
dl2.misses                                    1911 |         1911 |         1895 |         1895 |         2916 |         2916 |         2899 |         2899 |         4997 |         4997 |         4978 |         4978 |         9067 |         9067 |         9049 |         9049 |        17287 |        17287 |        17268 |        17268 |        33644 |        33644 |        33626 |        33626 |        66439 |      1077712 |        66420 |       195633 |       136849 |      2126963 |       168071 |       506294 |      4275609 |      4467274 |       647029 |      1001539 |      8940264 |      8950506 |      1309210 |      1992550 |     17905406 |     17910037 |      2623807 |      3974474 |
dl2.replacements                               172 |          172 |            0 |            0 |          173 |          173 |            0 |            0 |          179 |          179 |            0 |            0 |          178 |          178 |            0 |            0 |          181 |          181 |            0 |            0 |          179 |          179 |            0 |            0 |          181 |      1042827 |            0 |       130097 |         6844 |      2061427 |        36999 |       440758 |      4144537 |      4401738 |       515957 |       936003 |      8809192 |      8884970 |      1178138 |      1927014 |     17774334 |     17844501 |      2492735 |      3908938 |
dl2.writebacks                                 117 |          117 |            0 |            0 |          117 |          117 |            0 |            0 |          121 |          121 |            0 |            0 |          119 |          119 |            0 |            0 |          122 |          122 |            0 |            0 |          120 |          120 |            0 |            0 |          122 |       553651 |            0 |       129803 |         6313 |      1159851 |        36305 |       407099 |      2302535 |      2443935 |       460426 |       836768 |      4885679 |      4927195 |       985370 |      1696706 |      9852479 |      9906925 |      2035336 |      3416452 |
dl2.invalidations                                0 |            0 |            0 |            0 |            0 |            0 |            0 |            0 |            0 |            0 |            0 |            0 |            0 |            0 |            0 |            0 |            0 |            0 |            0 |            0 |            0 |            0 |            0 |            0 |            0 |            0 |            0 |            0 |            0 |            0 |            0 |            0 |            0 |            0 |            0 |            0 |            0 |            0 |            0 |            0 |            0 |            0 |            0 |            0 |
dl2.miss_rate                               0.0671 |       0.0671 |       0.0871 |       0.0871 |       0.0517 |       0.0517 |       0.0686 |       0.0686 |       0.0400 |       0.0400 |       0.0521 |       0.0521 |       0.0364 |       0.0364 |       0.0477 |       0.0477 |       0.0314 |       0.0314 |       0.0404 |       0.0404 |       0.0305 |       0.0305 |       0.0394 |       0.0394 |       0.0275 |       0.4460 |       0.0349 |       0.1028 |       0.0143 |       0.2228 |       0.0441 |       0.1330 |       0.2223 |       0.2323 |       0.0850 |       0.1316 |       0.2322 |       0.2325 |       0.0860 |       0.1309 |       0.2323 |       0.2324 |       0.0862 |       0.1306 |
dl2.repl_rate                               0.0060 |       0.0060 |       0.0000 |       0.0000 |       0.0031 |       0.0031 |       0.0000 |       0.0000 |       0.0014 |       0.0014 |       0.0000 |       0.0000 |       0.0007 |       0.0007 |       0.0000 |       0.0000 |       0.0003 |       0.0003 |       0.0000 |       0.0000 |       0.0002 |       0.0002 |       0.0000 |       0.0000 |       0.0001 |       0.4316 |       0.0000 |       0.0684 |       0.0007 |       0.2160 |       0.0097 |       0.1158 |       0.2155 |       0.2289 |       0.0678 |       0.1230 |       0.2288 |       0.2308 |       0.0774 |       0.1266 |       0.2306 |       0.2315 |       0.0819 |       0.1284 |
dl2.wb_rate                                 0.0041 |       0.0041 |       0.0000 |       0.0000 |       0.0021 |       0.0021 |       0.0000 |       0.0000 |       0.0010 |       0.0010 |       0.0000 |       0.0000 |       0.0005 |       0.0005 |       0.0000 |       0.0000 |       0.0002 |       0.0002 |       0.0000 |       0.0000 |       0.0001 |       0.0001 |       0.0000 |       0.0000 |       0.0001 |       0.2291 |       0.0000 |       0.0682 |       0.0007 |       0.1215 |       0.0095 |       0.1069 |       0.1197 |       0.1271 |       0.0605 |       0.1100 |       0.1269 |       0.1280 |       0.0648 |       0.1115 |       0.1278 |       0.1285 |       0.0669 |       0.1123 |
dl2.inv_rate                                0.0000 |       0.0000 |       0.0000 |       0.0000 |       0.0000 |       0.0000 |       0.0000 |       0.0000 |       0.0000 |       0.0000 |       0.0000 |       0.0000 |       0.0000 |       0.0000 |       0.0000 |       0.0000 |       0.0000 |       0.0000 |       0.0000 |       0.0000 |       0.0000 |       0.0000 |       0.0000 |       0.0000 |       0.0000 |       0.0000 |       0.0000 |       0.0000 |       0.0000 |       0.0000 |       0.0000 |       0.0000 |       0.0000 |       0.0000 |       0.0000 |       0.0000 |       0.0000 |       0.0000 |       0.0000 |       0.0000 |       0.0000 |       0.0000 |       0.0000 |       0.0000 |
itlb.accesses                               960846 |       960846 |       960846 |       960846 |      2024277 |      2024277 |      2024277 |      2024277 |      4351532 |      4351532 |      4351532 |      4351532 |      9161623 |      9161623 |      9161623 |      9161623 |     19589868 |     19589868 |     19589868 |     19589868 |     41092859 |     41092859 |     41092859 |     41092859 |     87272211 |     87272211 |     87272211 |     87272211 |    235361242 |    235361242 |    235361242 |    235361242 |    509082502 |    509082502 |    509082502 |    509082502 |   1080817715 |   1080817715 |   1080817715 |   1080817715 |   2319303910 |   2319303910 |   2319303910 |   2319303910 |
itlb.hits                                   960837 |       960837 |       960837 |       960837 |      2024268 |      2024268 |      2024268 |      2024268 |      4351523 |      4351523 |      4351523 |      4351523 |      9161614 |      9161614 |      9161614 |      9161614 |     19589859 |     19589859 |     19589859 |     19589859 |     41092850 |     41092850 |     41092850 |     41092850 |     87272202 |     87272202 |     87272202 |     87272202 |    235361232 |    235361232 |    235361232 |    235361232 |    509082492 |    509082492 |    509082492 |    509082492 |   1080817705 |   1080817705 |   1080817705 |   1080817705 |   2319303900 |   2319303900 |   2319303900 |   2319303900 |
itlb.misses                                      9 |            9 |            9 |            9 |            9 |            9 |            9 |            9 |            9 |            9 |            9 |            9 |            9 |            9 |            9 |            9 |            9 |            9 |            9 |            9 |            9 |            9 |            9 |            9 |            9 |            9 |            9 |            9 |           10 |           10 |           10 |           10 |           10 |           10 |           10 |           10 |           10 |           10 |           10 |           10 |           10 |           10 |           10 |           10 |
itlb.replacements                                0 |            0 |            0 |            0 |            0 |            0 |            0 |            0 |            0 |            0 |            0 |            0 |            0 |            0 |            0 |            0 |            0 |            0 |            0 |            0 |            0 |            0 |            0 |            0 |            0 |            0 |            0 |            0 |            0 |            0 |            0 |            0 |            0 |            0 |            0 |            0 |            0 |            0 |            0 |            0 |            0 |            0 |            0 |            0 |
itlb.writebacks                                  0 |            0 |            0 |            0 |            0 |            0 |            0 |            0 |            0 |            0 |            0 |            0 |            0 |            0 |            0 |            0 |            0 |            0 |            0 |            0 |            0 |            0 |            0 |            0 |            0 |            0 |            0 |            0 |            0 |            0 |            0 |            0 |            0 |            0 |            0 |            0 |            0 |            0 |            0 |            0 |            0 |            0 |            0 |            0 |
itlb.invalidations                               0 |            0 |            0 |            0 |            0 |            0 |            0 |            0 |            0 |            0 |            0 |            0 |            0 |            0 |            0 |            0 |            0 |            0 |            0 |            0 |            0 |            0 |            0 |            0 |            0 |            0 |            0 |            0 |            0 |            0 |            0 |            0 |            0 |            0 |            0 |            0 |            0 |            0 |            0 |            0 |            0 |            0 |            0 |            0 |
itlb.miss_rate                              0.0000 |       0.0000 |       0.0000 |       0.0000 |       0.0000 |       0.0000 |       0.0000 |       0.0000 |       0.0000 |       0.0000 |       0.0000 |       0.0000 |       0.0000 |       0.0000 |       0.0000 |       0.0000 |       0.0000 |       0.0000 |       0.0000 |       0.0000 |       0.0000 |       0.0000 |       0.0000 |       0.0000 |       0.0000 |       0.0000 |       0.0000 |       0.0000 |       0.0000 |       0.0000 |       0.0000 |       0.0000 |       0.0000 |       0.0000 |       0.0000 |       0.0000 |       0.0000 |       0.0000 |       0.0000 |       0.0000 |       0.0000 |       0.0000 |       0.0000 |       0.0000 |
itlb.repl_rate                              0.0000 |       0.0000 |       0.0000 |       0.0000 |       0.0000 |       0.0000 |       0.0000 |       0.0000 |       0.0000 |       0.0000 |       0.0000 |       0.0000 |       0.0000 |       0.0000 |       0.0000 |       0.0000 |       0.0000 |       0.0000 |       0.0000 |       0.0000 |       0.0000 |       0.0000 |       0.0000 |       0.0000 |       0.0000 |       0.0000 |       0.0000 |       0.0000 |       0.0000 |       0.0000 |       0.0000 |       0.0000 |       0.0000 |       0.0000 |       0.0000 |       0.0000 |       0.0000 |       0.0000 |       0.0000 |       0.0000 |       0.0000 |       0.0000 |       0.0000 |       0.0000 |
itlb.wb_rate                                0.0000 |       0.0000 |       0.0000 |       0.0000 |       0.0000 |       0.0000 |       0.0000 |       0.0000 |       0.0000 |       0.0000 |       0.0000 |       0.0000 |       0.0000 |       0.0000 |       0.0000 |       0.0000 |       0.0000 |       0.0000 |       0.0000 |       0.0000 |       0.0000 |       0.0000 |       0.0000 |       0.0000 |       0.0000 |       0.0000 |       0.0000 |       0.0000 |       0.0000 |       0.0000 |       0.0000 |       0.0000 |       0.0000 |       0.0000 |       0.0000 |       0.0000 |       0.0000 |       0.0000 |       0.0000 |       0.0000 |       0.0000 |       0.0000 |       0.0000 |       0.0000 |
itlb.inv_rate                               0.0000 |       0.0000 |       0.0000 |       0.0000 |       0.0000 |       0.0000 |       0.0000 |       0.0000 |       0.0000 |       0.0000 |       0.0000 |       0.0000 |       0.0000 |       0.0000 |       0.0000 |       0.0000 |       0.0000 |       0.0000 |       0.0000 |       0.0000 |       0.0000 |       0.0000 |       0.0000 |       0.0000 |       0.0000 |       0.0000 |       0.0000 |       0.0000 |       0.0000 |       0.0000 |       0.0000 |       0.0000 |       0.0000 |       0.0000 |       0.0000 |       0.0000 |       0.0000 |       0.0000 |       0.0000 |       0.0000 |       0.0000 |       0.0000 |       0.0000 |       0.0000 |
dtlb.accesses                               315183 |       315183 |       315183 |       315183 |       646952 |       646952 |       646952 |       646952 |      1400605 |      1400605 |      1400605 |      1400605 |      2891538 |      2891538 |      2891538 |      2891538 |      6235092 |      6235092 |      6235092 |      6235092 |     12862548 |     12862548 |     12862548 |     12862548 |     27549406 |     27549406 |     27549406 |     27549406 |     71140592 |     71140592 |     71140592 |     71140592 |    153174264 |    153174264 |    153174264 |    153174264 |    325238665 |    325238665 |    325238665 |    325238665 |    701384050 |    701384050 |    701384050 |    701384050 |
dtlb.hits                                   315168 |       315168 |       315168 |       315168 |       646929 |       646929 |       646929 |       646929 |      1400566 |      1400566 |      1400566 |      1400566 |      2891467 |      2891467 |      2891467 |      2891467 |      6234822 |      6234822 |      6234822 |      6234822 |     12858314 |     12858314 |     12858314 |     12858314 |     27539639 |     27539639 |     27539639 |     27539639 |     71121062 |     71121062 |     71121062 |     71121062 |    153135131 |    153135131 |    153135131 |    153135131 |    325144125 |    325144125 |    325144125 |    325144125 |    700849565 |    700849565 |    700849565 |    700849565 |
dtlb.misses                                     15 |           15 |           15 |           15 |           23 |           23 |           23 |           23 |           39 |           39 |           39 |           39 |           71 |           71 |           71 |           71 |          270 |          270 |          270 |          270 |         4234 |         4234 |         4234 |         4234 |         9767 |         9767 |         9767 |         9767 |        19530 |        19530 |        19530 |        19530 |        39133 |        39133 |        39133 |        39133 |        94540 |        94540 |        94540 |        94540 |       534485 |       534485 |       534485 |       534485 |
dtlb.replacements                                0 |            0 |            0 |            0 |            0 |            0 |            0 |            0 |            0 |            0 |            0 |            0 |            0 |            0 |            0 |            0 |          142 |          142 |          142 |          142 |         4106 |         4106 |         4106 |         4106 |         9639 |         9639 |         9639 |         9639 |        19402 |        19402 |        19402 |        19402 |        39005 |        39005 |        39005 |        39005 |        94412 |        94412 |        94412 |        94412 |       534357 |       534357 |       534357 |       534357 |
dtlb.writebacks                                  0 |            0 |            0 |            0 |            0 |            0 |            0 |            0 |            0 |            0 |            0 |            0 |            0 |            0 |            0 |            0 |           85 |           85 |           85 |           85 |         2150 |         2150 |         2150 |         2150 |         5080 |         5080 |         5080 |         5080 |        10231 |        10231 |        10231 |        10231 |        20519 |        20519 |        20519 |        20519 |        41099 |        41099 |        41099 |        41099 |        82227 |        82227 |        82227 |        82227 |
dtlb.invalidations                               0 |            0 |            0 |            0 |            0 |            0 |            0 |            0 |            0 |            0 |            0 |            0 |            0 |            0 |            0 |            0 |            0 |            0 |            0 |            0 |            0 |            0 |            0 |            0 |            0 |            0 |            0 |            0 |            0 |            0 |            0 |            0 |            0 |            0 |            0 |            0 |            0 |            0 |            0 |            0 |            0 |            0 |            0 |            0 |
dtlb.miss_rate                              0.0000 |       0.0000 |       0.0000 |       0.0000 |       0.0000 |       0.0000 |       0.0000 |       0.0000 |       0.0000 |       0.0000 |       0.0000 |       0.0000 |       0.0000 |       0.0000 |       0.0000 |       0.0000 |       0.0000 |       0.0000 |       0.0000 |       0.0000 |       0.0003 |       0.0003 |       0.0003 |       0.0003 |       0.0004 |       0.0004 |       0.0004 |       0.0004 |       0.0003 |       0.0003 |       0.0003 |       0.0003 |       0.0003 |       0.0003 |       0.0003 |       0.0003 |       0.0003 |       0.0003 |       0.0003 |       0.0003 |       0.0008 |       0.0008 |       0.0008 |       0.0008 |
dtlb.repl_rate                              0.0000 |       0.0000 |       0.0000 |       0.0000 |       0.0000 |       0.0000 |       0.0000 |       0.0000 |       0.0000 |       0.0000 |       0.0000 |       0.0000 |       0.0000 |       0.0000 |       0.0000 |       0.0000 |       0.0000 |       0.0000 |       0.0000 |       0.0000 |       0.0003 |       0.0003 |       0.0003 |       0.0003 |       0.0003 |       0.0003 |       0.0003 |       0.0003 |       0.0003 |       0.0003 |       0.0003 |       0.0003 |       0.0003 |       0.0003 |       0.0003 |       0.0003 |       0.0003 |       0.0003 |       0.0003 |       0.0003 |       0.0008 |       0.0008 |       0.0008 |       0.0008 |
dtlb.wb_rate                                0.0000 |       0.0000 |       0.0000 |       0.0000 |       0.0000 |       0.0000 |       0.0000 |       0.0000 |       0.0000 |       0.0000 |       0.0000 |       0.0000 |       0.0000 |       0.0000 |       0.0000 |       0.0000 |       0.0000 |       0.0000 |       0.0000 |       0.0000 |       0.0002 |       0.0002 |       0.0002 |       0.0002 |       0.0002 |       0.0002 |       0.0002 |       0.0002 |       0.0001 |       0.0001 |       0.0001 |       0.0001 |       0.0001 |       0.0001 |       0.0001 |       0.0001 |       0.0001 |       0.0001 |       0.0001 |       0.0001 |       0.0001 |       0.0001 |       0.0001 |       0.0001 |
dtlb.inv_rate                               0.0000 |       0.0000 |       0.0000 |       0.0000 |       0.0000 |       0.0000 |       0.0000 |       0.0000 |       0.0000 |       0.0000 |       0.0000 |       0.0000 |       0.0000 |       0.0000 |       0.0000 |       0.0000 |       0.0000 |       0.0000 |       0.0000 |       0.0000 |       0.0000 |       0.0000 |       0.0000 |       0.0000 |       0.0000 |       0.0000 |       0.0000 |       0.0000 |       0.0000 |       0.0000 |       0.0000 |       0.0000 |       0.0000 |       0.0000 |       0.0000 |       0.0000 |       0.0000 |       0.0000 |       0.0000 |       0.0000 |       0.0000 |       0.0000 |       0.0000 |       0.0000 |
ld_text_base                            0x00400000 |   0x00400000 |   0x00400000 |   0x00400000 |   0x00400000 |   0x00400000 |   0x00400000 |   0x00400000 |   0x00400000 |   0x00400000 |   0x00400000 |   0x00400000 |   0x00400000 |   0x00400000 |   0x00400000 |   0x00400000 |   0x00400000 |   0x00400000 |   0x00400000 |   0x00400000 |   0x00400000 |   0x00400000 |   0x00400000 |   0x00400000 |   0x00400000 |   0x00400000 |   0x00400000 |   0x00400000 |   0x00400000 |   0x00400000 |   0x00400000 |   0x00400000 |   0x00400000 |   0x00400000 |   0x00400000 |   0x00400000 |   0x00400000 |   0x00400000 |   0x00400000 |   0x00400000 |   0x00400000 |   0x00400000 |   0x00400000 |   0x00400000 |
ld_text_size                                 38032 |        38032 |        38032 |        38032 |        38064 |        38064 |        38064 |        38064 |        38080 |        38080 |        38080 |        38080 |        38112 |        38112 |        38112 |        38112 |        38112 |        38112 |        38112 |        38112 |        38112 |        38112 |        38112 |        38112 |        38112 |        38112 |        38112 |        38112 |        38112 |        38112 |        38112 |        38112 |        38112 |        38112 |        38112 |        38112 |        38112 |        38112 |        38112 |        38112 |        38112 |        38112 |        38112 |        38112 |
ld_data_base                            0x10000000 |   0x10000000 |   0x10000000 |   0x10000000 |   0x10000000 |   0x10000000 |   0x10000000 |   0x10000000 |   0x10000000 |   0x10000000 |   0x10000000 |   0x10000000 |   0x10000000 |   0x10000000 |   0x10000000 |   0x10000000 |   0x10000000 |   0x10000000 |   0x10000000 |   0x10000000 |   0x10000000 |   0x10000000 |   0x10000000 |   0x10000000 |   0x10000000 |   0x10000000 |   0x10000000 |   0x10000000 |   0x10000000 |   0x10000000 |   0x10000000 |   0x10000000 |   0x10000000 |   0x10000000 |   0x10000000 |   0x10000000 |   0x10000000 |   0x10000000 |   0x10000000 |   0x10000000 |   0x10000000 |   0x10000000 |   0x10000000 |   0x10000000 |
ld_data_size                                  4096 |         4096 |         4096 |         4096 |         4096 |         4096 |         4096 |         4096 |         4096 |         4096 |         4096 |         4096 |         4096 |         4096 |         4096 |         4096 |         4096 |         4096 |         4096 |         4096 |         4096 |         4096 |         4096 |         4096 |         4096 |         4096 |         4096 |         4096 |         4096 |         4096 |         4096 |         4096 |         4096 |         4096 |         4096 |         4096 |         4096 |         4096 |         4096 |         4096 |         4096 |         4096 |         4096 |         4096 |
ld_stack_base                           0x7fffc000 |   0x7fffc000 |   0x7fffc000 |   0x7fffc000 |   0x7fffc000 |   0x7fffc000 |   0x7fffc000 |   0x7fffc000 |   0x7fffc000 |   0x7fffc000 |   0x7fffc000 |   0x7fffc000 |   0x7fffc000 |   0x7fffc000 |   0x7fffc000 |   0x7fffc000 |   0x7fffc000 |   0x7fffc000 |   0x7fffc000 |   0x7fffc000 |   0x7fffc000 |   0x7fffc000 |   0x7fffc000 |   0x7fffc000 |   0x7fffc000 |   0x7fffc000 |   0x7fffc000 |   0x7fffc000 |   0x7fffc000 |   0x7fffc000 |   0x7fffc000 |   0x7fffc000 |   0x7fffc000 |   0x7fffc000 |   0x7fffc000 |   0x7fffc000 |   0x7fffc000 |   0x7fffc000 |   0x7fffc000 |   0x7fffc000 |   0x7fffc000 |   0x7fffc000 |   0x7fffc000 |   0x7fffc000 |
ld_stack_size                                16384 |        16384 |        16384 |        16384 |        16384 |        16384 |        16384 |        16384 |        16384 |        16384 |        16384 |        16384 |        16384 |        16384 |        16384 |        16384 |        16384 |        16384 |        16384 |        16384 |        16384 |        16384 |        16384 |        16384 |        16384 |        16384 |        16384 |        16384 |        16384 |        16384 |        16384 |        16384 |        16384 |        16384 |        16384 |        16384 |        16384 |        16384 |        16384 |        16384 |        16384 |        16384 |        16384 |        16384 |
ld_prog_entry                           0x00400140 |   0x00400140 |   0x00400140 |   0x00400140 |   0x00400140 |   0x00400140 |   0x00400140 |   0x00400140 |   0x00400140 |   0x00400140 |   0x00400140 |   0x00400140 |   0x00400140 |   0x00400140 |   0x00400140 |   0x00400140 |   0x00400140 |   0x00400140 |   0x00400140 |   0x00400140 |   0x00400140 |   0x00400140 |   0x00400140 |   0x00400140 |   0x00400140 |   0x00400140 |   0x00400140 |   0x00400140 |   0x00400140 |   0x00400140 |   0x00400140 |   0x00400140 |   0x00400140 |   0x00400140 |   0x00400140 |   0x00400140 |   0x00400140 |   0x00400140 |   0x00400140 |   0x00400140 |   0x00400140 |   0x00400140 |   0x00400140 |   0x00400140 |
ld_environ_base                         0x7fff8000 |   0x7fff8000 |   0x7fff8000 |   0x7fff8000 |   0x7fff8000 |   0x7fff8000 |   0x7fff8000 |   0x7fff8000 |   0x7fff8000 |   0x7fff8000 |   0x7fff8000 |   0x7fff8000 |   0x7fff8000 |   0x7fff8000 |   0x7fff8000 |   0x7fff8000 |   0x7fff8000 |   0x7fff8000 |   0x7fff8000 |   0x7fff8000 |   0x7fff8000 |   0x7fff8000 |   0x7fff8000 |   0x7fff8000 |   0x7fff8000 |   0x7fff8000 |   0x7fff8000 |   0x7fff8000 |   0x7fff8000 |   0x7fff8000 |   0x7fff8000 |   0x7fff8000 |   0x7fff8000 |   0x7fff8000 |   0x7fff8000 |   0x7fff8000 |   0x7fff8000 |   0x7fff8000 |   0x7fff8000 |   0x7fff8000 |   0x7fff8000 |   0x7fff8000 |   0x7fff8000 |   0x7fff8000 |
ld_target_big_endian                             0 |            0 |            0 |            0 |            0 |            0 |            0 |            0 |            0 |            0 |            0 |            0 |            0 |            0 |            0 |            0 |            0 |            0 |            0 |            0 |            0 |            0 |            0 |            0 |            0 |            0 |            0 |            0 |            0 |            0 |            0 |            0 |            0 |            0 |            0 |            0 |            0 |            0 |            0 |            0 |            0 |            0 |            0 |            0 |
mem.page_count                                  25 |           25 |           25 |           25 |           33 |           33 |           33 |           33 |           49 |           49 |           49 |           49 |           81 |           81 |           81 |           81 |          145 |          145 |          145 |          145 |          273 |          273 |          273 |          273 |          529 |          529 |          529 |          529 |         1047 |         1047 |         1047 |         1047 |         2071 |         2071 |         2071 |         2071 |         4125 |         4125 |         4125 |         4125 |         8233 |         8233 |         8233 |         8233 |
mem.page_mem                                  100k |         100k |         100k |         100k |         132k |         132k |         132k |         132k |         196k |         196k |         196k |         196k |         324k |         324k |         324k |         324k |         580k |         580k |         580k |         580k |        1092k |        1092k |        1092k |        1092k |        2116k |        2116k |        2116k |        2116k |        4188k |        4188k |        4188k |        4188k |        8284k |        8284k |        8284k |        8284k |       16500k |       16500k |       16500k |       16500k |       32932k |       32932k |       32932k |       32932k |
mem.ptab_misses                                 25 |           25 |           25 |           25 |           33 |           33 |           33 |           33 |           49 |           49 |           49 |           49 |           81 |           81 |           81 |           81 |          145 |          145 |          145 |          145 |          273 |          273 |          273 |          273 |          529 |          529 |          529 |          529 |         3143 |         3143 |         3143 |         3143 |       102035 |       102035 |       102035 |       102035 |       104090 |       104090 |       104090 |       104090 |       108198 |       108198 |       108198 |       108198 |
mem.ptab_accesses                          4707156 |      4707156 |      4707156 |      4707156 |      9624610 |      9624610 |      9624610 |      9624610 |     20441032 |     20441032 |     20441032 |     20441032 |     42663454 |     42663454 |     42663454 |     42663454 |     91063542 |     91063542 |     91063542 |     91063542 |    190330418 |    190330418 |    190330418 |    190330418 |    404421542 |    404421542 |    404421542 |    404421542 |   1083960038 |   1083960038 |   1083960038 |   1083960038 |   2342912422 |   2342912422 |   2342912422 |   2342912422 |   4973982076 |   4973982076 |   4973982076 |   4973982076 |  10680217626 |  10680217626 |  10680217626 |  10680217626 |
mem.ptab_miss_rate                          0.0000 |       0.0000 |       0.0000 |       0.0000 |       0.0000 |       0.0000 |       0.0000 |       0.0000 |       0.0000 |       0.0000 |       0.0000 |       0.0000 |       0.0000 |       0.0000 |       0.0000 |       0.0000 |       0.0000 |       0.0000 |       0.0000 |       0.0000 |       0.0000 |       0.0000 |       0.0000 |       0.0000 |       0.0000 |       0.0000 |       0.0000 |       0.0000 |       0.0000 |       0.0000 |       0.0000 |       0.0000 |       0.0000 |       0.0000 |       0.0000 |       0.0000 |       0.0000 |       0.0000 |       0.0000 |       0.0000 |       0.0000 |       0.0000 |       0.0000 |       0.0000 |
-------------------------------------------------------------------------------------------------
sim-bpred                                     4096 |         4096 |         4096 |         4096 |         4096 |         4096 |         4096 |         8192 |         8192 |         8192 |         8192 |         8192 |         8192 |         8192 |        16384 |        16384 |        16384 |        16384 |        16384 |        16384 |        16384 |        32768 |        32768 |        32768 |        32768 |        32768 |        32768 |        32768 |        65536 |        65536 |        65536 |        65536 |        65536 |        65536 |        65536 |       131072 |       131072 |       131072 |       131072 |       131072 |       131072 |       131072 |       262144 |       262144 |       262144 |       262144 |       262144 |       262144 |       262144 |       524288 |       524288 |       524288 |       524288 |       524288 |       524288 |       524288 |      1048576 |      1048576 |      1048576 |      1048576 |      1048576 |      1048576 |      1048576 |      2097152 |      2097152 |      2097152 |      2097152 |      2097152 |      2097152 |      2097152 |      4194304 |      4194304 |      4194304 |      4194304 |      4194304 |      4194304 |      4194304 |
-bpred bimod -bpred:bimod 512
-bpred bimod -bpred:bimod 1024
-bpred bimod -bpred:bimod 2048
-bpred 2lev -bpred:2lev 1 512 10 1
-bpred 2lev -bpred:2lev 1 1024 10 1
-bpred 2lev -bpred:2lev 1 2048 10 1
-bpred 2lev -bpred:2lev 1 4096 10 1
-------------------------------------------------------------------------------------------------
sim_num_insn                                960846 |       960846 |       960846 |       960846 |       960846 |       960846 |       960846 |      2024277 |      2024277 |      2024277 |      2024277 |      2024277 |      2024277 |      2024277 |      4351532 |      4351532 |      4351532 |      4351532 |      4351532 |      4351532 |      4351532 |      9161623 |      9161623 |      9161623 |      9161623 |      9161623 |      9161623 |      9161623 |     19589868 |     19589868 |     19589868 |     19589868 |     19589868 |     19589868 |     19589868 |     41092859 |     41092859 |     41092859 |     41092859 |     41092859 |     41092859 |     41092859 |     87272211 |     87272211 |     87272211 |     87272211 |     87272211 |     87272211 |     87272211 |    235361242 |    235361242 |    235361242 |    235361242 |    235361242 |    235361242 |    235361242 |    509082502 |    509082502 |    509082502 |    509082502 |    509082502 |    509082502 |    509082502 |   1080817715 |   1080817715 |   1080817715 |   1080817715 |   1080817715 |   1080817715 |   1080817715 |   2319303910 |   2319303910 |   2319303910 |   2319303910 |   2319303910 |   2319303910 |   2319303910 |
sim_num_refs                                315113 |       315113 |       315113 |       315113 |       315113 |       315113 |       315113 |       646882 |       646882 |       646882 |       646882 |       646882 |       646882 |       646882 |      1400535 |      1400535 |      1400535 |      1400535 |      1400535 |      1400535 |      1400535 |      2891468 |      2891468 |      2891468 |      2891468 |      2891468 |      2891468 |      2891468 |      6235022 |      6235022 |      6235022 |      6235022 |      6235022 |      6235022 |      6235022 |     12862478 |     12862478 |     12862478 |     12862478 |     12862478 |     12862478 |     12862478 |     27549336 |     27549336 |     27549336 |     27549336 |     27549336 |     27549336 |     27549336 |     71140522 |     71140522 |     71140522 |     71140522 |     71140522 |     71140522 |     71140522 |    153174194 |    153174194 |    153174194 |    153174194 |    153174194 |    153174194 |    153174194 |    325238595 |    325238595 |    325238595 |    325238595 |    325238595 |    325238595 |    325238595 |    701383980 |    701383980 |    701383980 |    701383980 |    701383980 |    701383980 |    701383980 |
sim_elapsed_time                                 1 |            1 |            1 |            1 |            1 |            1 |            1 |            1 |            1 |            1 |            1 |            1 |            1 |            1 |            2 |            2 |            2 |            2 |            2 |            1 |            2 |            4 |            4 |            4 |            4 |            4 |            4 |            4 |            8 |            9 |            8 |            9 |            8 |            9 |            9 |           18 |           18 |           18 |           18 |           18 |           18 |           18 |           38 |           37 |           37 |           39 |           38 |           39 |           38 |          104 |          103 |          104 |          105 |          105 |          106 |          107 |          225 |          225 |          224 |          229 |          229 |          228 |          228 |          474 |          477 |          380 |          362 |          364 |          363 |          365 |          508 |          506 |          503 |          512 |          518 |          516 |          519 |
sim_inst_rate                          960846.0000 |  960846.0000 |  960846.0000 |  960846.0000 |  960846.0000 |  960846.0000 |  960846.0000 | 2024277.0000 | 2024277.0000 | 2024277.0000 | 2024277.0000 | 2024277.0000 | 2024277.0000 | 2024277.0000 | 2175766.0000 | 2175766.0000 | 2175766.0000 | 2175766.0000 | 2175766.0000 | 4351532.0000 | 2175766.0000 | 2290405.7500 | 2290405.7500 | 2290405.7500 | 2290405.7500 | 2290405.7500 | 2290405.7500 | 2290405.7500 | 2448733.5000 | 2176652.0000 | 2448733.5000 | 2176652.0000 | 2448733.5000 | 2176652.0000 | 2176652.0000 | 2282936.6111 | 2282936.6111 | 2282936.6111 | 2282936.6111 | 2282936.6111 | 2282936.6111 | 2282936.6111 | 2296637.1316 | 2358708.4054 | 2358708.4054 | 2237749.0000 | 2296637.1316 | 2237749.0000 | 2296637.1316 | 2263088.8654 | 2285060.6019 | 2263088.8654 | 2241535.6381 | 2241535.6381 | 2220389.0755 | 2199637.7757 | 2262588.8978 | 2262588.8978 | 2272689.7411 | 2223067.6943 | 2223067.6943 | 2232817.9912 | 2232817.9912 | 2280206.1498 | 2265865.2306 | 2844257.1447 | 2985684.2956 | 2969279.4368 | 2977459.2700 | 2961144.4247 | 4565558.8780 | 4583604.5652 | 4610942.1670 | 4529890.4492 | 4477420.6757 | 4494775.0194 | 4468793.6609 |
sim_num_branches                            130621 |       130621 |       130621 |       130621 |       130621 |       130621 |       130621 |       273975 |       273975 |       273975 |       273975 |       273975 |       273975 |       273975 |       580072 |       580072 |       580072 |       580072 |       580072 |       580072 |       580072 |      1218997 |      1218997 |      1218997 |      1218997 |      1218997 |      1218997 |      1218997 |      2575392 |      2575392 |      2575392 |      2575392 |      2575392 |      2575392 |      2575392 |      5397803 |      5397803 |      5397803 |      5397803 |      5397803 |      5397803 |      5397803 |     11349720 |     11349720 |     11349720 |     11349720 |     11349720 |     11349720 |     11349720 |     32688534 |     32688534 |     32688534 |     32688534 |     32688534 |     32688534 |     32688534 |     70866120 |     70866120 |     70866120 |     70866120 |     70866120 |     70866120 |     70866120 |    149396516 |    149396516 |    149396516 |    149396516 |    149396516 |    149396516 |    149396516 |    315837478 |    315837478 |    315837478 |    315837478 |    315837478 |    315837478 |    315837478 |
sim_IPB                                     7.3560 |       7.3560 |       7.3560 |       7.3560 |       7.3560 |       7.3560 |       7.3560 |       7.3885 |       7.3885 |       7.3885 |       7.3885 |       7.3885 |       7.3885 |       7.3885 |       7.5017 |       7.5017 |       7.5017 |       7.5017 |       7.5017 |       7.5017 |       7.5017 |       7.5157 |       7.5157 |       7.5157 |       7.5157 |       7.5157 |       7.5157 |       7.5157 |       7.6066 |       7.6066 |       7.6066 |       7.6066 |       7.6066 |       7.6066 |       7.6066 |       7.6129 |       7.6129 |       7.6129 |       7.6129 |       7.6129 |       7.6129 |       7.6129 |       7.6894 |       7.6894 |       7.6894 |       7.6894 |       7.6894 |       7.6894 |       7.6894 |       7.2001 |       7.2001 |       7.2001 |       7.2001 |       7.2001 |       7.2001 |       7.2001 |       7.1837 |       7.1837 |       7.1837 |       7.1837 |       7.1837 |       7.1837 |       7.1837 |       7.2346 |       7.2346 |       7.2346 |       7.2346 |       7.2346 |       7.2346 |       7.2346 |       7.3433 |       7.3433 |       7.3433 |       7.3433 |       7.3433 |       7.3433 |       7.3433 |
bpred_bimod.lookups                         130621 |       130621 |       130621 |xxxxxxxxxxxxx |xxxxxxxxxxxxx |xxxxxxxxxxxxx |xxxxxxxxxxxxx |       273975 |       273975 |       273975 |xxxxxxxxxxxxx |xxxxxxxxxxxxx |xxxxxxxxxxxxx |xxxxxxxxxxxxx |       580072 |       580072 |       580072 |xxxxxxxxxxxxx |xxxxxxxxxxxxx |xxxxxxxxxxxxx |xxxxxxxxxxxxx |      1218997 |      1218997 |      1218997 |xxxxxxxxxxxxx |xxxxxxxxxxxxx |xxxxxxxxxxxxx |xxxxxxxxxxxxx |      2575392 |      2575392 |      2575392 |xxxxxxxxxxxxx |xxxxxxxxxxxxx |xxxxxxxxxxxxx |xxxxxxxxxxxxx |      5397803 |      5397803 |      5397803 |xxxxxxxxxxxxx |xxxxxxxxxxxxx |xxxxxxxxxxxxx |xxxxxxxxxxxxx |     11349720 |     11349720 |     11349720 |xxxxxxxxxxxxx |xxxxxxxxxxxxx |xxxxxxxxxxxxx |xxxxxxxxxxxxx |     32688534 |     32688534 |     32688534 |xxxxxxxxxxxxx |xxxxxxxxxxxxx |xxxxxxxxxxxxx |xxxxxxxxxxxxx |     70866120 |     70866120 |     70866120 |xxxxxxxxxxxxx |xxxxxxxxxxxxx |xxxxxxxxxxxxx |xxxxxxxxxxxxx |    149396516 |    149396516 |    149396516 |xxxxxxxxxxxxx |xxxxxxxxxxxxx |xxxxxxxxxxxxx |xxxxxxxxxxxxx |    315837478 |    315837478 |    315837478 |
bpred_bimod.updates                         130621 |       130621 |       130621 |xxxxxxxxxxxxx |xxxxxxxxxxxxx |xxxxxxxxxxxxx |xxxxxxxxxxxxx |       273975 |       273975 |       273975 |xxxxxxxxxxxxx |xxxxxxxxxxxxx |xxxxxxxxxxxxx |xxxxxxxxxxxxx |       580072 |       580072 |       580072 |xxxxxxxxxxxxx |xxxxxxxxxxxxx |xxxxxxxxxxxxx |xxxxxxxxxxxxx |      1218997 |      1218997 |      1218997 |xxxxxxxxxxxxx |xxxxxxxxxxxxx |xxxxxxxxxxxxx |xxxxxxxxxxxxx |      2575392 |      2575392 |      2575392 |xxxxxxxxxxxxx |xxxxxxxxxxxxx |xxxxxxxxxxxxx |xxxxxxxxxxxxx |      5397803 |      5397803 |      5397803 |xxxxxxxxxxxxx |xxxxxxxxxxxxx |xxxxxxxxxxxxx |xxxxxxxxxxxxx |     11349720 |     11349720 |     11349720 |xxxxxxxxxxxxx |xxxxxxxxxxxxx |xxxxxxxxxxxxx |xxxxxxxxxxxxx |     32688534 |     32688534 |     32688534 |xxxxxxxxxxxxx |xxxxxxxxxxxxx |xxxxxxxxxxxxx |xxxxxxxxxxxxx |     70866120 |     70866120 |     70866120 |xxxxxxxxxxxxx |xxxxxxxxxxxxx |xxxxxxxxxxxxx |xxxxxxxxxxxxx |    149396516 |    149396516 |    149396516 |xxxxxxxxxxxxx |xxxxxxxxxxxxx |xxxxxxxxxxxxx |xxxxxxxxxxxxx |    315837478 |    315837478 |    315837478 |
bpred_bimod.addr_hits                       104851 |       104858 |       104857 |xxxxxxxxxxxxx |xxxxxxxxxxxxx |xxxxxxxxxxxxx |xxxxxxxxxxxxx |       218881 |       218631 |       218632 |xxxxxxxxxxxxx |xxxxxxxxxxxxx |xxxxxxxxxxxxx |xxxxxxxxxxxxx |       461103 |       461105 |       461108 |xxxxxxxxxxxxx |xxxxxxxxxxxxx |xxxxxxxxxxxxx |xxxxxxxxxxxxx |       965157 |       965162 |       965164 |xxxxxxxxxxxxx |xxxxxxxxxxxxx |xxxxxxxxxxxxx |xxxxxxxxxxxxx |      2035233 |      2035239 |      2035240 |xxxxxxxxxxxxx |xxxxxxxxxxxxx |xxxxxxxxxxxxx |xxxxxxxxxxxxx |      4250436 |      4250442 |      4250443 |xxxxxxxxxxxxx |xxxxxxxxxxxxx |xxxxxxxxxxxxx |xxxxxxxxxxxxx |      8924536 |      8924542 |      8924544 |xxxxxxxxxxxxx |xxxxxxxxxxxxx |xxxxxxxxxxxxx |xxxxxxxxxxxxx |     26446574 |     26446586 |     26446588 |xxxxxxxxxxxxx |xxxxxxxxxxxxx |xxxxxxxxxxxxx |xxxxxxxxxxxxx |     57764451 |     57764469 |     57764471 |xxxxxxxxxxxxx |xxxxxxxxxxxxx |xxxxxxxxxxxxx |xxxxxxxxxxxxx |    121103652 |    121103675 |    121103677 |xxxxxxxxxxxxx |xxxxxxxxxxxxx |xxxxxxxxxxxxx |xxxxxxxxxxxxx |    255655418 |    255655444 |    255655445 |
bpred_bimod.dir_hits                        104987 |       104994 |       104992 |xxxxxxxxxxxxx |xxxxxxxxxxxxx |xxxxxxxxxxxxx |xxxxxxxxxxxxx |       219013 |       218762 |       218762 |xxxxxxxxxxxxx |xxxxxxxxxxxxx |xxxxxxxxxxxxx |xxxxxxxxxxxxx |       461245 |       461244 |       461247 |xxxxxxxxxxxxx |xxxxxxxxxxxxx |xxxxxxxxxxxxx |xxxxxxxxxxxxx |       965291 |       965295 |       965297 |xxxxxxxxxxxxx |xxxxxxxxxxxxx |xxxxxxxxxxxxx |xxxxxxxxxxxxx |      2035371 |      2035376 |      2035378 |xxxxxxxxxxxxx |xxxxxxxxxxxxx |xxxxxxxxxxxxx |xxxxxxxxxxxxx |      4250569 |      4250574 |      4250575 |xxxxxxxxxxxxx |xxxxxxxxxxxxx |xxxxxxxxxxxxx |xxxxxxxxxxxxx |      8924672 |      8924677 |      8924681 |xxxxxxxxxxxxx |xxxxxxxxxxxxx |xxxxxxxxxxxxx |xxxxxxxxxxxxx |     26446768 |     26446775 |     26446780 |xxxxxxxxxxxxx |xxxxxxxxxxxxx |xxxxxxxxxxxxx |xxxxxxxxxxxxx |     57764650 |     57764662 |     57764667 |xxxxxxxxxxxxx |xxxxxxxxxxxxx |xxxxxxxxxxxxx |xxxxxxxxxxxxx |    121103855 |    121103872 |    121103876 |xxxxxxxxxxxxx |xxxxxxxxxxxxx |xxxxxxxxxxxxx |xxxxxxxxxxxxx |    255655621 |    255655642 |    255655646 |
bpred_bimod.misses                           25634 |        25627 |        25629 |xxxxxxxxxxxxx |xxxxxxxxxxxxx |xxxxxxxxxxxxx |xxxxxxxxxxxxx |        54962 |        55213 |        55213 |xxxxxxxxxxxxx |xxxxxxxxxxxxx |xxxxxxxxxxxxx |xxxxxxxxxxxxx |       118827 |       118828 |       118825 |xxxxxxxxxxxxx |xxxxxxxxxxxxx |xxxxxxxxxxxxx |xxxxxxxxxxxxx |       253706 |       253702 |       253700 |xxxxxxxxxxxxx |xxxxxxxxxxxxx |xxxxxxxxxxxxx |xxxxxxxxxxxxx |       540021 |       540016 |       540014 |xxxxxxxxxxxxx |xxxxxxxxxxxxx |xxxxxxxxxxxxx |xxxxxxxxxxxxx |      1147234 |      1147229 |      1147228 |xxxxxxxxxxxxx |xxxxxxxxxxxxx |xxxxxxxxxxxxx |xxxxxxxxxxxxx |      2425048 |      2425043 |      2425039 |xxxxxxxxxxxxx |xxxxxxxxxxxxx |xxxxxxxxxxxxx |xxxxxxxxxxxxx |      6241766 |      6241759 |      6241754 |xxxxxxxxxxxxx |xxxxxxxxxxxxx |xxxxxxxxxxxxx |xxxxxxxxxxxxx |     13101470 |     13101458 |     13101453 |xxxxxxxxxxxxx |xxxxxxxxxxxxx |xxxxxxxxxxxxx |xxxxxxxxxxxxx |     28292661 |     28292644 |     28292640 |xxxxxxxxxxxxx |xxxxxxxxxxxxx |xxxxxxxxxxxxx |xxxxxxxxxxxxx |     60181857 |     60181836 |     60181832 |
bpred_bimod.jr_hits                           8568 |         8568 |         8568 |xxxxxxxxxxxxx |xxxxxxxxxxxxx |xxxxxxxxxxxxx |xxxxxxxxxxxxx |        16758 |        16758 |        16758 |xxxxxxxxxxxxx |xxxxxxxxxxxxx |xxxxxxxxxxxxx |xxxxxxxxxxxxx |        33144 |        33144 |        33144 |xxxxxxxxxxxxx |xxxxxxxxxxxxx |xxxxxxxxxxxxx |xxxxxxxxxxxxx |        65910 |        65910 |        65910 |xxxxxxxxxxxxx |xxxxxxxxxxxxx |xxxxxxxxxxxxx |xxxxxxxxxxxxx |       131448 |       131448 |       131448 |xxxxxxxxxxxxx |xxxxxxxxxxxxx |xxxxxxxxxxxxx |xxxxxxxxxxxxx |       262518 |       262518 |       262518 |xxxxxxxxxxxxx |xxxxxxxxxxxxx |xxxxxxxxxxxxx |xxxxxxxxxxxxx |       524664 |       524664 |       524664 |xxxxxxxxxxxxx |xxxxxxxxxxxxx |xxxxxxxxxxxxx |xxxxxxxxxxxxx |      1573267 |      1573267 |      1573267 |xxxxxxxxxxxxx |xxxxxxxxxxxxx |xxxxxxxxxxxxx |xxxxxxxxxxxxx |      3146131 |      3146131 |      3146131 |xxxxxxxxxxxxx |xxxxxxxxxxxxx |xxxxxxxxxxxxx |xxxxxxxxxxxxx |      6291859 |      6291859 |      6291859 |xxxxxxxxxxxxx |xxxxxxxxxxxxx |xxxxxxxxxxxxx |xxxxxxxxxxxxx |     12583315 |     12583315 |     12583315 |
bpred_bimod.jr_seen                           8570 |         8570 |         8570 |xxxxxxxxxxxxx |xxxxxxxxxxxxx |xxxxxxxxxxxxx |xxxxxxxxxxxxx |        16759 |        16759 |        16759 |xxxxxxxxxxxxx |xxxxxxxxxxxxx |xxxxxxxxxxxxx |xxxxxxxxxxxxx |        33146 |        33146 |        33146 |xxxxxxxxxxxxx |xxxxxxxxxxxxx |xxxxxxxxxxxxx |xxxxxxxxxxxxx |        65911 |        65911 |        65911 |xxxxxxxxxxxxx |xxxxxxxxxxxxx |xxxxxxxxxxxxx |xxxxxxxxxxxxx |       131450 |       131450 |       131450 |xxxxxxxxxxxxx |xxxxxxxxxxxxx |xxxxxxxxxxxxx |xxxxxxxxxxxxx |       262519 |       262519 |       262519 |xxxxxxxxxxxxx |xxxxxxxxxxxxx |xxxxxxxxxxxxx |xxxxxxxxxxxxx |       524666 |       524666 |       524666 |xxxxxxxxxxxxx |xxxxxxxxxxxxx |xxxxxxxxxxxxx |xxxxxxxxxxxxx |      1573268 |      1573268 |      1573268 |xxxxxxxxxxxxx |xxxxxxxxxxxxx |xxxxxxxxxxxxx |xxxxxxxxxxxxx |      3146132 |      3146132 |      3146132 |xxxxxxxxxxxxx |xxxxxxxxxxxxx |xxxxxxxxxxxxx |xxxxxxxxxxxxx |      6291860 |      6291860 |      6291860 |xxxxxxxxxxxxx |xxxxxxxxxxxxx |xxxxxxxxxxxxx |xxxxxxxxxxxxx |     12583316 |     12583316 |     12583316 |
bpred_bimod.jr_non_ras_hits.PP                   0 |            0 |            0 |xxxxxxxxxxxxx |xxxxxxxxxxxxx |xxxxxxxxxxxxx |xxxxxxxxxxxxx |            0 |            0 |            0 |xxxxxxxxxxxxx |xxxxxxxxxxxxx |xxxxxxxxxxxxx |xxxxxxxxxxxxx |            0 |            0 |            0 |xxxxxxxxxxxxx |xxxxxxxxxxxxx |xxxxxxxxxxxxx |xxxxxxxxxxxxx |            0 |            0 |            0 |xxxxxxxxxxxxx |xxxxxxxxxxxxx |xxxxxxxxxxxxx |xxxxxxxxxxxxx |            0 |            0 |            0 |xxxxxxxxxxxxx |xxxxxxxxxxxxx |xxxxxxxxxxxxx |xxxxxxxxxxxxx |            0 |            0 |            0 |xxxxxxxxxxxxx |xxxxxxxxxxxxx |xxxxxxxxxxxxx |xxxxxxxxxxxxx |            0 |            0 |            0 |xxxxxxxxxxxxx |xxxxxxxxxxxxx |xxxxxxxxxxxxx |xxxxxxxxxxxxx |            0 |            0 |            0 |xxxxxxxxxxxxx |xxxxxxxxxxxxx |xxxxxxxxxxxxx |xxxxxxxxxxxxx |            0 |            0 |            0 |xxxxxxxxxxxxx |xxxxxxxxxxxxx |xxxxxxxxxxxxx |xxxxxxxxxxxxx |            0 |            0 |            0 |xxxxxxxxxxxxx |xxxxxxxxxxxxx |xxxxxxxxxxxxx |xxxxxxxxxxxxx |            0 |            0 |            0 |
bpred_bimod.jr_non_ras_seen.PP                   1 |            1 |            1 |xxxxxxxxxxxxx |xxxxxxxxxxxxx |xxxxxxxxxxxxx |xxxxxxxxxxxxx |            0 |            0 |            0 |xxxxxxxxxxxxx |xxxxxxxxxxxxx |xxxxxxxxxxxxx |xxxxxxxxxxxxx |            1 |            1 |            1 |xxxxxxxxxxxxx |xxxxxxxxxxxxx |xxxxxxxxxxxxx |xxxxxxxxxxxxx |            0 |            0 |            0 |xxxxxxxxxxxxx |xxxxxxxxxxxxx |xxxxxxxxxxxxx |xxxxxxxxxxxxx |            1 |            1 |            1 |xxxxxxxxxxxxx |xxxxxxxxxxxxx |xxxxxxxxxxxxx |xxxxxxxxxxxxx |            0 |            0 |            0 |xxxxxxxxxxxxx |xxxxxxxxxxxxx |xxxxxxxxxxxxx |xxxxxxxxxxxxx |            1 |            1 |            1 |xxxxxxxxxxxxx |xxxxxxxxxxxxx |xxxxxxxxxxxxx |xxxxxxxxxxxxx |            1 |            1 |            1 |xxxxxxxxxxxxx |xxxxxxxxxxxxx |xxxxxxxxxxxxx |xxxxxxxxxxxxx |            1 |            1 |            1 |xxxxxxxxxxxxx |xxxxxxxxxxxxx |xxxxxxxxxxxxx |xxxxxxxxxxxxx |            1 |            1 |            1 |xxxxxxxxxxxxx |xxxxxxxxxxxxx |xxxxxxxxxxxxx |xxxxxxxxxxxxx |            1 |            1 |            1 |
bpred_bimod.bpred_addr_rate                 0.8027 |       0.8028 |       0.8028 |xxxxxxxxxxxxx |xxxxxxxxxxxxx |xxxxxxxxxxxxx |xxxxxxxxxxxxx |       0.7989 |       0.7980 |       0.7980 |xxxxxxxxxxxxx |xxxxxxxxxxxxx |xxxxxxxxxxxxx |xxxxxxxxxxxxx |       0.7949 |       0.7949 |       0.7949 |xxxxxxxxxxxxx |xxxxxxxxxxxxx |xxxxxxxxxxxxx |xxxxxxxxxxxxx |       0.7918 |       0.7918 |       0.7918 |xxxxxxxxxxxxx |xxxxxxxxxxxxx |xxxxxxxxxxxxx |xxxxxxxxxxxxx |       0.7903 |       0.7903 |       0.7903 |xxxxxxxxxxxxx |xxxxxxxxxxxxx |xxxxxxxxxxxxx |xxxxxxxxxxxxx |       0.7874 |       0.7874 |       0.7874 |xxxxxxxxxxxxx |xxxxxxxxxxxxx |xxxxxxxxxxxxx |xxxxxxxxxxxxx |       0.7863 |       0.7863 |       0.7863 |xxxxxxxxxxxxx |xxxxxxxxxxxxx |xxxxxxxxxxxxx |xxxxxxxxxxxxx |       0.8090 |       0.8090 |       0.8090 |xxxxxxxxxxxxx |xxxxxxxxxxxxx |xxxxxxxxxxxxx |xxxxxxxxxxxxx |       0.8151 |       0.8151 |       0.8151 |xxxxxxxxxxxxx |xxxxxxxxxxxxx |xxxxxxxxxxxxx |xxxxxxxxxxxxx |       0.8106 |       0.8106 |       0.8106 |xxxxxxxxxxxxx |xxxxxxxxxxxxx |xxxxxxxxxxxxx |xxxxxxxxxxxxx |       0.8095 |       0.8095 |       0.8095 |
bpred_bimod.bpred_dir_rate                  0.8038 |       0.8038 |       0.8038 |xxxxxxxxxxxxx |xxxxxxxxxxxxx |xxxxxxxxxxxxx |xxxxxxxxxxxxx |       0.7994 |       0.7985 |       0.7985 |xxxxxxxxxxxxx |xxxxxxxxxxxxx |xxxxxxxxxxxxx |xxxxxxxxxxxxx |       0.7952 |       0.7951 |       0.7952 |xxxxxxxxxxxxx |xxxxxxxxxxxxx |xxxxxxxxxxxxx |xxxxxxxxxxxxx |       0.7919 |       0.7919 |       0.7919 |xxxxxxxxxxxxx |xxxxxxxxxxxxx |xxxxxxxxxxxxx |xxxxxxxxxxxxx |       0.7903 |       0.7903 |       0.7903 |xxxxxxxxxxxxx |xxxxxxxxxxxxx |xxxxxxxxxxxxx |xxxxxxxxxxxxx |       0.7875 |       0.7875 |       0.7875 |xxxxxxxxxxxxx |xxxxxxxxxxxxx |xxxxxxxxxxxxx |xxxxxxxxxxxxx |       0.7863 |       0.7863 |       0.7863 |xxxxxxxxxxxxx |xxxxxxxxxxxxx |xxxxxxxxxxxxx |xxxxxxxxxxxxx |       0.8091 |       0.8091 |       0.8091 |xxxxxxxxxxxxx |xxxxxxxxxxxxx |xxxxxxxxxxxxx |xxxxxxxxxxxxx |       0.8151 |       0.8151 |       0.8151 |xxxxxxxxxxxxx |xxxxxxxxxxxxx |xxxxxxxxxxxxx |xxxxxxxxxxxxx |       0.8106 |       0.8106 |       0.8106 |xxxxxxxxxxxxx |xxxxxxxxxxxxx |xxxxxxxxxxxxx |xxxxxxxxxxxxx |       0.8095 |       0.8095 |       0.8095 |
bpred_bimod.bpred_jr_rate                   0.9998 |       0.9998 |       0.9998 |xxxxxxxxxxxxx |xxxxxxxxxxxxx |xxxxxxxxxxxxx |xxxxxxxxxxxxx |       0.9999 |       0.9999 |       0.9999 |xxxxxxxxxxxxx |xxxxxxxxxxxxx |xxxxxxxxxxxxx |xxxxxxxxxxxxx |       0.9999 |       0.9999 |       0.9999 |xxxxxxxxxxxxx |xxxxxxxxxxxxx |xxxxxxxxxxxxx |xxxxxxxxxxxxx |       1.0000 |       1.0000 |       1.0000 |xxxxxxxxxxxxx |xxxxxxxxxxxxx |xxxxxxxxxxxxx |xxxxxxxxxxxxx |       1.0000 |       1.0000 |       1.0000 |xxxxxxxxxxxxx |xxxxxxxxxxxxx |xxxxxxxxxxxxx |xxxxxxxxxxxxx |       1.0000 |       1.0000 |       1.0000 |xxxxxxxxxxxxx |xxxxxxxxxxxxx |xxxxxxxxxxxxx |xxxxxxxxxxxxx |       1.0000 |       1.0000 |       1.0000 |xxxxxxxxxxxxx |xxxxxxxxxxxxx |xxxxxxxxxxxxx |xxxxxxxxxxxxx |       1.0000 |       1.0000 |       1.0000 |xxxxxxxxxxxxx |xxxxxxxxxxxxx |xxxxxxxxxxxxx |xxxxxxxxxxxxx |       1.0000 |       1.0000 |       1.0000 |xxxxxxxxxxxxx |xxxxxxxxxxxxx |xxxxxxxxxxxxx |xxxxxxxxxxxxx |       1.0000 |       1.0000 |       1.0000 |xxxxxxxxxxxxx |xxxxxxxxxxxxx |xxxxxxxxxxxxx |xxxxxxxxxxxxx |       1.0000 |       1.0000 |       1.0000 |
bpred_bimod.bpred_jr_non_ras_rate.PP        0.0000 |       0.0000 |       0.0000 |xxxxxxxxxxxxx |xxxxxxxxxxxxx |xxxxxxxxxxxxx |xxxxxxxxxxxxx |      <error: |      <error: |      <error: |xxxxxxxxxxxxx |xxxxxxxxxxxxx |xxxxxxxxxxxxx |xxxxxxxxxxxxx |       0.0000 |       0.0000 |       0.0000 |xxxxxxxxxxxxx |xxxxxxxxxxxxx |xxxxxxxxxxxxx |xxxxxxxxxxxxx |      <error: |      <error: |      <error: |xxxxxxxxxxxxx |xxxxxxxxxxxxx |xxxxxxxxxxxxx |xxxxxxxxxxxxx |       0.0000 |       0.0000 |       0.0000 |xxxxxxxxxxxxx |xxxxxxxxxxxxx |xxxxxxxxxxxxx |xxxxxxxxxxxxx |      <error: |      <error: |      <error: |xxxxxxxxxxxxx |xxxxxxxxxxxxx |xxxxxxxxxxxxx |xxxxxxxxxxxxx |       0.0000 |       0.0000 |       0.0000 |xxxxxxxxxxxxx |xxxxxxxxxxxxx |xxxxxxxxxxxxx |xxxxxxxxxxxxx |       0.0000 |       0.0000 |       0.0000 |xxxxxxxxxxxxx |xxxxxxxxxxxxx |xxxxxxxxxxxxx |xxxxxxxxxxxxx |       0.0000 |       0.0000 |       0.0000 |xxxxxxxxxxxxx |xxxxxxxxxxxxx |xxxxxxxxxxxxx |xxxxxxxxxxxxx |       0.0000 |       0.0000 |       0.0000 |xxxxxxxxxxxxx |xxxxxxxxxxxxx |xxxxxxxxxxxxx |xxxxxxxxxxxxx |       0.0000 |       0.0000 |       0.0000 |
bpred_bimod.retstack_pushes                   8571 |         8571 |         8571 |xxxxxxxxxxxxx |xxxxxxxxxxxxx |xxxxxxxxxxxxx |xxxxxxxxxxxxx |        16761 |        16761 |        16761 |xxxxxxxxxxxxx |xxxxxxxxxxxxx |xxxxxxxxxxxxx |xxxxxxxxxxxxx |        33147 |        33147 |        33147 |xxxxxxxxxxxxx |xxxxxxxxxxxxx |xxxxxxxxxxxxx |xxxxxxxxxxxxx |        65913 |        65913 |        65913 |xxxxxxxxxxxxx |xxxxxxxxxxxxx |xxxxxxxxxxxxx |xxxxxxxxxxxxx |       131451 |       131451 |       131451 |xxxxxxxxxxxxx |xxxxxxxxxxxxx |xxxxxxxxxxxxx |xxxxxxxxxxxxx |       262521 |       262521 |       262521 |xxxxxxxxxxxxx |xxxxxxxxxxxxx |xxxxxxxxxxxxx |xxxxxxxxxxxxx |       524667 |       524667 |       524667 |xxxxxxxxxxxxx |xxxxxxxxxxxxx |xxxxxxxxxxxxx |xxxxxxxxxxxxx |      1573269 |      1573269 |      1573269 |xxxxxxxxxxxxx |xxxxxxxxxxxxx |xxxxxxxxxxxxx |xxxxxxxxxxxxx |      3146133 |      3146133 |      3146133 |xxxxxxxxxxxxx |xxxxxxxxxxxxx |xxxxxxxxxxxxx |xxxxxxxxxxxxx |      6291861 |      6291861 |      6291861 |xxxxxxxxxxxxx |xxxxxxxxxxxxx |xxxxxxxxxxxxx |xxxxxxxxxxxxx |     12583317 |     12583317 |     12583317 |
bpred_bimod.retstack_pops                     8569 |         8569 |         8569 |xxxxxxxxxxxxx |xxxxxxxxxxxxx |xxxxxxxxxxxxx |xxxxxxxxxxxxx |        16759 |        16759 |        16759 |xxxxxxxxxxxxx |xxxxxxxxxxxxx |xxxxxxxxxxxxx |xxxxxxxxxxxxx |        33145 |        33145 |        33145 |xxxxxxxxxxxxx |xxxxxxxxxxxxx |xxxxxxxxxxxxx |xxxxxxxxxxxxx |        65911 |        65911 |        65911 |xxxxxxxxxxxxx |xxxxxxxxxxxxx |xxxxxxxxxxxxx |xxxxxxxxxxxxx |       131449 |       131449 |       131449 |xxxxxxxxxxxxx |xxxxxxxxxxxxx |xxxxxxxxxxxxx |xxxxxxxxxxxxx |       262519 |       262519 |       262519 |xxxxxxxxxxxxx |xxxxxxxxxxxxx |xxxxxxxxxxxxx |xxxxxxxxxxxxx |       524665 |       524665 |       524665 |xxxxxxxxxxxxx |xxxxxxxxxxxxx |xxxxxxxxxxxxx |xxxxxxxxxxxxx |      1573267 |      1573267 |      1573267 |xxxxxxxxxxxxx |xxxxxxxxxxxxx |xxxxxxxxxxxxx |xxxxxxxxxxxxx |      3146131 |      3146131 |      3146131 |xxxxxxxxxxxxx |xxxxxxxxxxxxx |xxxxxxxxxxxxx |xxxxxxxxxxxxx |      6291859 |      6291859 |      6291859 |xxxxxxxxxxxxx |xxxxxxxxxxxxx |xxxxxxxxxxxxx |xxxxxxxxxxxxx |     12583315 |     12583315 |     12583315 |
bpred_bimod.used_ras.PP                       8569 |         8569 |         8569 |xxxxxxxxxxxxx |xxxxxxxxxxxxx |xxxxxxxxxxxxx |xxxxxxxxxxxxx |        16759 |        16759 |        16759 |xxxxxxxxxxxxx |xxxxxxxxxxxxx |xxxxxxxxxxxxx |xxxxxxxxxxxxx |        33145 |        33145 |        33145 |xxxxxxxxxxxxx |xxxxxxxxxxxxx |xxxxxxxxxxxxx |xxxxxxxxxxxxx |        65911 |        65911 |        65911 |xxxxxxxxxxxxx |xxxxxxxxxxxxx |xxxxxxxxxxxxx |xxxxxxxxxxxxx |       131449 |       131449 |       131449 |xxxxxxxxxxxxx |xxxxxxxxxxxxx |xxxxxxxxxxxxx |xxxxxxxxxxxxx |       262519 |       262519 |       262519 |xxxxxxxxxxxxx |xxxxxxxxxxxxx |xxxxxxxxxxxxx |xxxxxxxxxxxxx |       524665 |       524665 |       524665 |xxxxxxxxxxxxx |xxxxxxxxxxxxx |xxxxxxxxxxxxx |xxxxxxxxxxxxx |      1573267 |      1573267 |      1573267 |xxxxxxxxxxxxx |xxxxxxxxxxxxx |xxxxxxxxxxxxx |xxxxxxxxxxxxx |      3146131 |      3146131 |      3146131 |xxxxxxxxxxxxx |xxxxxxxxxxxxx |xxxxxxxxxxxxx |xxxxxxxxxxxxx |      6291859 |      6291859 |      6291859 |xxxxxxxxxxxxx |xxxxxxxxxxxxx |xxxxxxxxxxxxx |xxxxxxxxxxxxx |     12583315 |     12583315 |     12583315 |
bpred_bimod.ras_hits.PP                       8568 |         8568 |         8568 |xxxxxxxxxxxxx |xxxxxxxxxxxxx |xxxxxxxxxxxxx |xxxxxxxxxxxxx |        16758 |        16758 |        16758 |xxxxxxxxxxxxx |xxxxxxxxxxxxx |xxxxxxxxxxxxx |xxxxxxxxxxxxx |        33144 |        33144 |        33144 |xxxxxxxxxxxxx |xxxxxxxxxxxxx |xxxxxxxxxxxxx |xxxxxxxxxxxxx |        65910 |        65910 |        65910 |xxxxxxxxxxxxx |xxxxxxxxxxxxx |xxxxxxxxxxxxx |xxxxxxxxxxxxx |       131448 |       131448 |       131448 |xxxxxxxxxxxxx |xxxxxxxxxxxxx |xxxxxxxxxxxxx |xxxxxxxxxxxxx |       262518 |       262518 |       262518 |xxxxxxxxxxxxx |xxxxxxxxxxxxx |xxxxxxxxxxxxx |xxxxxxxxxxxxx |       524664 |       524664 |       524664 |xxxxxxxxxxxxx |xxxxxxxxxxxxx |xxxxxxxxxxxxx |xxxxxxxxxxxxx |      1573267 |      1573267 |      1573267 |xxxxxxxxxxxxx |xxxxxxxxxxxxx |xxxxxxxxxxxxx |xxxxxxxxxxxxx |      3146131 |      3146131 |      3146131 |xxxxxxxxxxxxx |xxxxxxxxxxxxx |xxxxxxxxxxxxx |xxxxxxxxxxxxx |      6291859 |      6291859 |      6291859 |xxxxxxxxxxxxx |xxxxxxxxxxxxx |xxxxxxxxxxxxx |xxxxxxxxxxxxx |     12583315 |     12583315 |     12583315 |
bpred_bimod.ras_rate.PP                     0.9999 |       0.9999 |       0.9999 |xxxxxxxxxxxxx |xxxxxxxxxxxxx |xxxxxxxxxxxxx |xxxxxxxxxxxxx |       0.9999 |       0.9999 |       0.9999 |xxxxxxxxxxxxx |xxxxxxxxxxxxx |xxxxxxxxxxxxx |xxxxxxxxxxxxx |       1.0000 |       1.0000 |       1.0000 |xxxxxxxxxxxxx |xxxxxxxxxxxxx |xxxxxxxxxxxxx |xxxxxxxxxxxxx |       1.0000 |       1.0000 |       1.0000 |xxxxxxxxxxxxx |xxxxxxxxxxxxx |xxxxxxxxxxxxx |xxxxxxxxxxxxx |       1.0000 |       1.0000 |       1.0000 |xxxxxxxxxxxxx |xxxxxxxxxxxxx |xxxxxxxxxxxxx |xxxxxxxxxxxxx |       1.0000 |       1.0000 |       1.0000 |xxxxxxxxxxxxx |xxxxxxxxxxxxx |xxxxxxxxxxxxx |xxxxxxxxxxxxx |       1.0000 |       1.0000 |       1.0000 |xxxxxxxxxxxxx |xxxxxxxxxxxxx |xxxxxxxxxxxxx |xxxxxxxxxxxxx |       1.0000 |       1.0000 |       1.0000 |xxxxxxxxxxxxx |xxxxxxxxxxxxx |xxxxxxxxxxxxx |xxxxxxxxxxxxx |       1.0000 |       1.0000 |       1.0000 |xxxxxxxxxxxxx |xxxxxxxxxxxxx |xxxxxxxxxxxxx |xxxxxxxxxxxxx |       1.0000 |       1.0000 |       1.0000 |xxxxxxxxxxxxx |xxxxxxxxxxxxx |xxxxxxxxxxxxx |xxxxxxxxxxxxx |       1.0000 |       1.0000 |       1.0000 |
bpred_2lev.lookups                   xxxxxxxxxxxxx |xxxxxxxxxxxxx |xxxxxxxxxxxxx |       130621 |       130621 |       130621 |       130621 |xxxxxxxxxxxxx |xxxxxxxxxxxxx |xxxxxxxxxxxxx |       273975 |       273975 |       273975 |       273975 |xxxxxxxxxxxxx |xxxxxxxxxxxxx |xxxxxxxxxxxxx |       580072 |       580072 |       580072 |       580072 |xxxxxxxxxxxxx |xxxxxxxxxxxxx |xxxxxxxxxxxxx |      1218997 |      1218997 |      1218997 |      1218997 |xxxxxxxxxxxxx |xxxxxxxxxxxxx |xxxxxxxxxxxxx |      2575392 |      2575392 |      2575392 |      2575392 |xxxxxxxxxxxxx |xxxxxxxxxxxxx |xxxxxxxxxxxxx |      5397803 |      5397803 |      5397803 |      5397803 |xxxxxxxxxxxxx |xxxxxxxxxxxxx |xxxxxxxxxxxxx |     11349720 |     11349720 |     11349720 |     11349720 |xxxxxxxxxxxxx |xxxxxxxxxxxxx |xxxxxxxxxxxxx |     32688534 |     32688534 |     32688534 |     32688534 |xxxxxxxxxxxxx |xxxxxxxxxxxxx |xxxxxxxxxxxxx |     70866120 |     70866120 |     70866120 |     70866120 |xxxxxxxxxxxxx |xxxxxxxxxxxxx |xxxxxxxxxxxxx |    149396516 |    149396516 |    149396516 |    149396516 |xxxxxxxxxxxxx |xxxxxxxxxxxxx |xxxxxxxxxxxxx |    315837478 |    315837478 |    315837478 |    315837478 |
[...]
bpred_2lev.retstack_pushes           xxxxxxxxxxxxx |xxxxxxxxxxxxx |xxxxxxxxxxxxx |         8571 |         8571 |         8571 |         8571 |xxxxxxxxxxxxx |xxxxxxxxxxxxx |xxxxxxxxxxxxx |        16761 |        16761 |        16761 |        16761 |xxxxxxxxxxxxx |xxxxxxxxxxxxx |xxxxxxxxxxxxx |        33147 |        33147 |        33147 |        33147 |xxxxxxxxxxxxx |xxxxxxxxxxxxx |xxxxxxxxxxxxx |        65913 |        65913 |        65913 |        65913 |xxxxxxxxxxxxx |xxxxxxxxxxxxx |xxxxxxxxxxxxx |       131451 |       131451 |       131451 |       131451 |xxxxxxxxxxxxx |xxxxxxxxxxxxx |xxxxxxxxxxxxx |       262521 |       262521 |       262521 |       262521 |xxxxxxxxxxxxx |xxxxxxxxxxxxx |xxxxxxxxxxxxx |       524667 |       524667 |       524667 |       524667 |xxxxxxxxxxxxx |xxxxxxxxxxxxx |xxxxxxxxxxxxx |      1573269 |      1573269 |      1573269 |      1573269 |xxxxxxxxxxxxx |xxxxxxxxxxxxx |xxxxxxxxxxxxx |      3146133 |      3146133 |      3146133 |      3146133 |xxxxxxxxxxxxx |xxxxxxxxxxxxx |xxxxxxxxxxxxx |      6291861 |      6291861 |      6291861 |      6291861 |xxxxxxxxxxxxx |xxxxxxxxxxxxx |xxxxxxxxxxxxx |     12583317 |     12583317 |     12583317 |     12583317 |
bpred_2lev.retstack_pops             xxxxxxxxxxxxx |xxxxxxxxxxxxx |xxxxxxxxxxxxx |         8569 |         8569 |         8569 |         8569 |xxxxxxxxxxxxx |xxxxxxxxxxxxx |xxxxxxxxxxxxx |        16759 |        16759 |        16759 |        16759 |xxxxxxxxxxxxx |xxxxxxxxxxxxx |xxxxxxxxxxxxx |        33145 |        33145 |        33145 |        33145 |xxxxxxxxxxxxx |xxxxxxxxxxxxx |xxxxxxxxxxxxx |        65911 |        65911 |        65911 |        65911 |xxxxxxxxxxxxx |xxxxxxxxxxxxx |xxxxxxxxxxxxx |       131449 |       131449 |       131449 |       131449 |xxxxxxxxxxxxx |xxxxxxxxxxxxx |xxxxxxxxxxxxx |       262519 |       262519 |       262519 |       262519 |xxxxxxxxxxxxx |xxxxxxxxxxxxx |xxxxxxxxxxxxx |       524665 |       524665 |       524665 |       524665 |xxxxxxxxxxxxx |xxxxxxxxxxxxx |xxxxxxxxxxxxx |      1573267 |      1573267 |      1573267 |      1573267 |xxxxxxxxxxxxx |xxxxxxxxxxxxx |xxxxxxxxxxxxx |      3146131 |      3146131 |      3146131 |      3146131 |xxxxxxxxxxxxx |xxxxxxxxxxxxx |xxxxxxxxxxxxx |      6291859 |      6291859 |      6291859 |      6291859 |xxxxxxxxxxxxx |xxxxxxxxxxxxx |xxxxxxxxxxxxx |     12583315 |     12583315 |     12583315 |     12583315 |
bpred_2lev.used_ras.PP               xxxxxxxxxxxxx |xxxxxxxxxxxxx |xxxxxxxxxxxxx |         8569 |         8569 |         8569 |         8569 |xxxxxxxxxxxxx |xxxxxxxxxxxxx |xxxxxxxxxxxxx |        16759 |        16759 |        16759 |        16759 |xxxxxxxxxxxxx |xxxxxxxxxxxxx |xxxxxxxxxxxxx |        33145 |        33145 |        33145 |        33145 |xxxxxxxxxxxxx |xxxxxxxxxxxxx |xxxxxxxxxxxxx |        65911 |        65911 |        65911 |        65911 |xxxxxxxxxxxxx |xxxxxxxxxxxxx |xxxxxxxxxxxxx |       131449 |       131449 |       131449 |       131449 |xxxxxxxxxxxxx |xxxxxxxxxxxxx |xxxxxxxxxxxxx |       262519 |       262519 |       262519 |       262519 |xxxxxxxxxxxxx |xxxxxxxxxxxxx |xxxxxxxxxxxxx |       524665 |       524665 |       524665 |       524665 |xxxxxxxxxxxxx |xxxxxxxxxxxxx |xxxxxxxxxxxxx |      1573267 |      1573267 |      1573267 |      1573267 |xxxxxxxxxxxxx |xxxxxxxxxxxxx |xxxxxxxxxxxxx |      3146131 |      3146131 |      3146131 |      3146131 |xxxxxxxxxxxxx |xxxxxxxxxxxxx |xxxxxxxxxxxxx |      6291859 |      6291859 |      6291859 |      6291859 |xxxxxxxxxxxxx |xxxxxxxxxxxxx |xxxxxxxxxxxxx |     12583315 |     12583315 |     12583315 |     12583315 |
bpred_2lev.ras_hits.PP               xxxxxxxxxxxxx |xxxxxxxxxxxxx |xxxxxxxxxxxxx |         8568 |         8568 |         8568 |         8568 |xxxxxxxxxxxxx |xxxxxxxxxxxxx |xxxxxxxxxxxxx |        16758 |        16758 |        16758 |        16758 |xxxxxxxxxxxxx |xxxxxxxxxxxxx |xxxxxxxxxxxxx |        33144 |        33144 |        33144 |        33144 |xxxxxxxxxxxxx |xxxxxxxxxxxxx |xxxxxxxxxxxxx |        65910 |        65910 |        65910 |        65910 |xxxxxxxxxxxxx |xxxxxxxxxxxxx |xxxxxxxxxxxxx |       131448 |       131448 |       131448 |       131448 |xxxxxxxxxxxxx |xxxxxxxxxxxxx |xxxxxxxxxxxxx |       262518 |       262518 |       262518 |       262518 |xxxxxxxxxxxxx |xxxxxxxxxxxxx |xxxxxxxxxxxxx |       524664 |       524664 |       524664 |       524664 |xxxxxxxxxxxxx |xxxxxxxxxxxxx |xxxxxxxxxxxxx |      1573267 |      1573267 |      1573267 |      1573267 |xxxxxxxxxxxxx |xxxxxxxxxxxxx |xxxxxxxxxxxxx |      3146131 |      3146131 |      3146131 |      3146131 |xxxxxxxxxxxxx |xxxxxxxxxxxxx |xxxxxxxxxxxxx |      6291859 |      6291859 |      6291859 |      6291859 |xxxxxxxxxxxxx |xxxxxxxxxxxxx |xxxxxxxxxxxxx |     12583315 |     12583315 |     12583315 |     12583315 |
bpred_2lev.ras_rate.PP               xxxxxxxxxxxxx |xxxxxxxxxxxxx |xxxxxxxxxxxxx |       0.9999 |       0.9999 |       0.9999 |       0.9999 |xxxxxxxxxxxxx |xxxxxxxxxxxxx |xxxxxxxxxxxxx |       0.9999 |       0.9999 |       0.9999 |       0.9999 |xxxxxxxxxxxxx |xxxxxxxxxxxxx |xxxxxxxxxxxxx |       1.0000 |       1.0000 |       1.0000 |       1.0000 |xxxxxxxxxxxxx |xxxxxxxxxxxxx |xxxxxxxxxxxxx |       1.0000 |       1.0000 |       1.0000 |       1.0000 |xxxxxxxxxxxxx |xxxxxxxxxxxxx |xxxxxxxxxxxxx |       1.0000 |       1.0000 |       1.0000 |       1.0000 |xxxxxxxxxxxxx |xxxxxxxxxxxxx |xxxxxxxxxxxxx |       1.0000 |       1.0000 |       1.0000 |       1.0000 |xxxxxxxxxxxxx |xxxxxxxxxxxxx |xxxxxxxxxxxxx |       1.0000 |       1.0000 |       1.0000 |       1.0000 |xxxxxxxxxxxxx |xxxxxxxxxxxxx |xxxxxxxxxxxxx |       1.0000 |       1.0000 |       1.0000 |       1.0000 |xxxxxxxxxxxxx |xxxxxxxxxxxxx |xxxxxxxxxxxxx |       1.0000 |       1.0000 |       1.0000 |       1.0000 |xxxxxxxxxxxxx |xxxxxxxxxxxxx |xxxxxxxxxxxxx |       1.0000 |       1.0000 |       1.0000 |       1.0000 |xxxxxxxxxxxxx |xxxxxxxxxxxxx |xxxxxxxxxxxxx |       1.0000 |       1.0000 |       1.0000 |       1.0000 |

Command list: 
	sslittle-na-sstrix-gcc -Wall -O3 -funroll-loops -finline-functions  -DRANDOM_SIZE=4096 -DSEED=0 -DSORT=multi_mergesort multi_mergesort2011783405.c simpleMain.c -o multi_mergesort162962643
	sim-cache -cache:dl1 dl1:256:32:1:l -cache:dl2 dl2:131072:32:1:l -cache:il1 il1:256:32:1:l -cache:il2 dl2 multi_mergesort162962643
	sim-cache -cache:dl1 dl1:256:32:1:l -cache:dl2 dl2:65536:32:1:l -cache:il1 il1:256:32:1:l -cache:il2 dl2 multi_mergesort162962643
	sim-cache -cache:dl1 dl1:1:32:256:l -cache:dl2 dl2:1:32:131072:l -cache:il1 il1:1:32:256:l -cache:il2 dl2 multi_mergesort162962643
	sim-cache -cache:dl1 dl1:1:32:256:l -cache:dl2 dl2:1:32:65536:l -cache:il1 il1:1:32:256:l -cache:il2 dl2 multi_mergesort162962643
	sim-bpred -bpred bimod -bpred:bimod 512 multi_mergesort162962643
	sim-bpred -bpred bimod -bpred:bimod 1024 multi_mergesort162962643
	sim-bpred -bpred bimod -bpred:bimod 2048 multi_mergesort162962643
	sim-bpred -bpred 2lev -bpred:2lev 1 512 10 1 multi_mergesort162962643
	sim-bpred -bpred 2lev -bpred:2lev 1 1024 10 1 multi_mergesort162962643
	sim-bpred -bpred 2lev -bpred:2lev 1 2048 10 1 multi_mergesort162962643
	sim-bpred -bpred 2lev -bpred:2lev 1 4096 10 1 multi_mergesort162962643
	sslittle-na-sstrix-gcc -Wall -O3 -funroll-loops -finline-functions  -DRANDOM_SIZE=8192 -DSEED=0 -DSORT=multi_mergesort multi_mergesort2011783405.c simpleMain.c -o multi_mergesort162962643
	sim-cache -cache:dl1 dl1:256:32:1:l -cache:dl2 dl2:131072:32:1:l -cache:il1 il1:256:32:1:l -cache:il2 dl2 multi_mergesort162962643
	sim-cache -cache:dl1 dl1:256:32:1:l -cache:dl2 dl2:65536:32:1:l -cache:il1 il1:256:32:1:l -cache:il2 dl2 multi_mergesort162962643
	sim-cache -cache:dl1 dl1:1:32:256:l -cache:dl2 dl2:1:32:131072:l -cache:il1 il1:1:32:256:l -cache:il2 dl2 multi_mergesort162962643
	sim-cache -cache:dl1 dl1:1:32:256:l -cache:dl2 dl2:1:32:65536:l -cache:il1 il1:1:32:256:l -cache:il2 dl2 multi_mergesort162962643
	sim-bpred -bpred bimod -bpred:bimod 512 multi_mergesort162962643
	sim-bpred -bpred bimod -bpred:bimod 1024 multi_mergesort162962643
	sim-bpred -bpred bimod -bpred:bimod 2048 multi_mergesort162962643
	sim-bpred -bpred 2lev -bpred:2lev 1 512 10 1 multi_mergesort162962643
	sim-bpred -bpred 2lev -bpred:2lev 1 1024 10 1 multi_mergesort162962643
	sim-bpred -bpred 2lev -bpred:2lev 1 2048 10 1 multi_mergesort162962643
	sim-bpred -bpred 2lev -bpred:2lev 1 4096 10 1 multi_mergesort162962643
	sslittle-na-sstrix-gcc -Wall -O3 -funroll-loops -finline-functions  -DRANDOM_SIZE=16384 -DSEED=0 -DSORT=multi_mergesort multi_mergesort2011783405.c simpleMain.c -o multi_mergesort162962643
	sim-cache -cache:dl1 dl1:256:32:1:l -cache:dl2 dl2:131072:32:1:l -cache:il1 il1:256:32:1:l -cache:il2 dl2 multi_mergesort162962643
	sim-cache -cache:dl1 dl1:256:32:1:l -cache:dl2 dl2:65536:32:1:l -cache:il1 il1:256:32:1:l -cache:il2 dl2 multi_mergesort162962643
	sim-cache -cache:dl1 dl1:1:32:256:l -cache:dl2 dl2:1:32:131072:l -cache:il1 il1:1:32:256:l -cache:il2 dl2 multi_mergesort162962643
	sim-cache -cache:dl1 dl1:1:32:256:l -cache:dl2 dl2:1:32:65536:l -cache:il1 il1:1:32:256:l -cache:il2 dl2 multi_mergesort162962643
	sim-bpred -bpred bimod -bpred:bimod 512 multi_mergesort162962643
	sim-bpred -bpred bimod -bpred:bimod 1024 multi_mergesort162962643
	sim-bpred -bpred bimod -bpred:bimod 2048 multi_mergesort162962643
	sim-bpred -bpred 2lev -bpred:2lev 1 512 10 1 multi_mergesort162962643
	sim-bpred -bpred 2lev -bpred:2lev 1 1024 10 1 multi_mergesort162962643
	sim-bpred -bpred 2lev -bpred:2lev 1 2048 10 1 multi_mergesort162962643
	sim-bpred -bpred 2lev -bpred:2lev 1 4096 10 1 multi_mergesort162962643
	sslittle-na-sstrix-gcc -Wall -O3 -funroll-loops -finline-functions  -DRANDOM_SIZE=32768 -DSEED=0 -DSORT=multi_mergesort multi_mergesort2011783405.c simpleMain.c -o multi_mergesort162962643
	sim-cache -cache:dl1 dl1:256:32:1:l -cache:dl2 dl2:131072:32:1:l -cache:il1 il1:256:32:1:l -cache:il2 dl2 multi_mergesort162962643
	sim-cache -cache:dl1 dl1:256:32:1:l -cache:dl2 dl2:65536:32:1:l -cache:il1 il1:256:32:1:l -cache:il2 dl2 multi_mergesort162962643
	sim-cache -cache:dl1 dl1:1:32:256:l -cache:dl2 dl2:1:32:131072:l -cache:il1 il1:1:32:256:l -cache:il2 dl2 multi_mergesort162962643
	sim-cache -cache:dl1 dl1:1:32:256:l -cache:dl2 dl2:1:32:65536:l -cache:il1 il1:1:32:256:l -cache:il2 dl2 multi_mergesort162962643
	sim-bpred -bpred bimod -bpred:bimod 512 multi_mergesort162962643
	sim-bpred -bpred bimod -bpred:bimod 1024 multi_mergesort162962643
	sim-bpred -bpred bimod -bpred:bimod 2048 multi_mergesort162962643
	sim-bpred -bpred 2lev -bpred:2lev 1 512 10 1 multi_mergesort162962643
	sim-bpred -bpred 2lev -bpred:2lev 1 1024 10 1 multi_mergesort162962643
	sim-bpred -bpred 2lev -bpred:2lev 1 2048 10 1 multi_mergesort162962643
	sim-bpred -bpred 2lev -bpred:2lev 1 4096 10 1 multi_mergesort162962643
	sslittle-na-sstrix-gcc -Wall -O3 -funroll-loops -finline-functions  -DRANDOM_SIZE=65536 -DSEED=0 -DSORT=multi_mergesort multi_mergesort2011783405.c simpleMain.c -o multi_mergesort162962643
	sim-cache -cache:dl1 dl1:256:32:1:l -cache:dl2 dl2:131072:32:1:l -cache:il1 il1:256:32:1:l -cache:il2 dl2 multi_mergesort162962643
	sim-cache -cache:dl1 dl1:256:32:1:l -cache:dl2 dl2:65536:32:1:l -cache:il1 il1:256:32:1:l -cache:il2 dl2 multi_mergesort162962643
	sim-cache -cache:dl1 dl1:1:32:256:l -cache:dl2 dl2:1:32:131072:l -cache:il1 il1:1:32:256:l -cache:il2 dl2 multi_mergesort162962643
	sim-cache -cache:dl1 dl1:1:32:256:l -cache:dl2 dl2:1:32:65536:l -cache:il1 il1:1:32:256:l -cache:il2 dl2 multi_mergesort162962643
	sim-bpred -bpred bimod -bpred:bimod 512 multi_mergesort162962643
	sim-bpred -bpred bimod -bpred:bimod 1024 multi_mergesort162962643
	sim-bpred -bpred bimod -bpred:bimod 2048 multi_mergesort162962643
	sim-bpred -bpred 2lev -bpred:2lev 1 512 10 1 multi_mergesort162962643
	sim-bpred -bpred 2lev -bpred:2lev 1 1024 10 1 multi_mergesort162962643
	sim-bpred -bpred 2lev -bpred:2lev 1 2048 10 1 multi_mergesort162962643
	sim-bpred -bpred 2lev -bpred:2lev 1 4096 10 1 multi_mergesort162962643
	sslittle-na-sstrix-gcc -Wall -O3 -funroll-loops -finline-functions  -DRANDOM_SIZE=131072 -DSEED=0 -DSORT=multi_mergesort multi_mergesort2011783405.c simpleMain.c -o multi_mergesort162962643
	sim-cache -cache:dl1 dl1:256:32:1:l -cache:dl2 dl2:131072:32:1:l -cache:il1 il1:256:32:1:l -cache:il2 dl2 multi_mergesort162962643
	sim-cache -cache:dl1 dl1:256:32:1:l -cache:dl2 dl2:65536:32:1:l -cache:il1 il1:256:32:1:l -cache:il2 dl2 multi_mergesort162962643
	sim-cache -cache:dl1 dl1:1:32:256:l -cache:dl2 dl2:1:32:131072:l -cache:il1 il1:1:32:256:l -cache:il2 dl2 multi_mergesort162962643
	sim-cache -cache:dl1 dl1:1:32:256:l -cache:dl2 dl2:1:32:65536:l -cache:il1 il1:1:32:256:l -cache:il2 dl2 multi_mergesort162962643
	sim-bpred -bpred bimod -bpred:bimod 512 multi_mergesort162962643
	sim-bpred -bpred bimod -bpred:bimod 1024 multi_mergesort162962643
	sim-bpred -bpred bimod -bpred:bimod 2048 multi_mergesort162962643
	sim-bpred -bpred 2lev -bpred:2lev 1 512 10 1 multi_mergesort162962643
	sim-bpred -bpred 2lev -bpred:2lev 1 1024 10 1 multi_mergesort162962643
	sim-bpred -bpred 2lev -bpred:2lev 1 2048 10 1 multi_mergesort162962643
	sim-bpred -bpred 2lev -bpred:2lev 1 4096 10 1 multi_mergesort162962643
	sslittle-na-sstrix-gcc -Wall -O3 -funroll-loops -finline-functions  -DRANDOM_SIZE=262144 -DSEED=0 -DSORT=multi_mergesort multi_mergesort2011783405.c simpleMain.c -o multi_mergesort162962643
	sim-cache -cache:dl1 dl1:256:32:1:l -cache:dl2 dl2:131072:32:1:l -cache:il1 il1:256:32:1:l -cache:il2 dl2 multi_mergesort162962643
	sim-cache -cache:dl1 dl1:256:32:1:l -cache:dl2 dl2:65536:32:1:l -cache:il1 il1:256:32:1:l -cache:il2 dl2 multi_mergesort162962643
	sim-cache -cache:dl1 dl1:1:32:256:l -cache:dl2 dl2:1:32:131072:l -cache:il1 il1:1:32:256:l -cache:il2 dl2 multi_mergesort162962643
	sim-cache -cache:dl1 dl1:1:32:256:l -cache:dl2 dl2:1:32:65536:l -cache:il1 il1:1:32:256:l -cache:il2 dl2 multi_mergesort162962643
	sim-bpred -bpred bimod -bpred:bimod 512 multi_mergesort162962643
	sim-bpred -bpred bimod -bpred:bimod 1024 multi_mergesort162962643
	sim-bpred -bpred bimod -bpred:bimod 2048 multi_mergesort162962643
	sim-bpred -bpred 2lev -bpred:2lev 1 512 10 1 multi_mergesort162962643
	sim-bpred -bpred 2lev -bpred:2lev 1 1024 10 1 multi_mergesort162962643
	sim-bpred -bpred 2lev -bpred:2lev 1 2048 10 1 multi_mergesort162962643
	sim-bpred -bpred 2lev -bpred:2lev 1 4096 10 1 multi_mergesort162962643
	sslittle-na-sstrix-gcc -Wall -O3 -funroll-loops -finline-functions  -DRANDOM_SIZE=524288 -DSEED=0 -DSORT=multi_mergesort multi_mergesort2011783405.c simpleMain.c -o multi_mergesort162962643
	sim-cache -cache:dl1 dl1:256:32:1:l -cache:dl2 dl2:131072:32:1:l -cache:il1 il1:256:32:1:l -cache:il2 dl2 multi_mergesort162962643
	sim-cache -cache:dl1 dl1:256:32:1:l -cache:dl2 dl2:65536:32:1:l -cache:il1 il1:256:32:1:l -cache:il2 dl2 multi_mergesort162962643
	sim-cache -cache:dl1 dl1:1:32:256:l -cache:dl2 dl2:1:32:131072:l -cache:il1 il1:1:32:256:l -cache:il2 dl2 multi_mergesort162962643
	sim-cache -cache:dl1 dl1:1:32:256:l -cache:dl2 dl2:1:32:65536:l -cache:il1 il1:1:32:256:l -cache:il2 dl2 multi_mergesort162962643
	sim-bpred -bpred bimod -bpred:bimod 512 multi_mergesort162962643
	sim-bpred -bpred bimod -bpred:bimod 1024 multi_mergesort162962643
	sim-bpred -bpred bimod -bpred:bimod 2048 multi_mergesort162962643
	sim-bpred -bpred 2lev -bpred:2lev 1 512 10 1 multi_mergesort162962643
	sim-bpred -bpred 2lev -bpred:2lev 1 1024 10 1 multi_mergesort162962643
	sim-bpred -bpred 2lev -bpred:2lev 1 2048 10 1 multi_mergesort162962643
	sim-bpred -bpred 2lev -bpred:2lev 1 4096 10 1 multi_mergesort162962643
	sslittle-na-sstrix-gcc -Wall -O3 -funroll-loops -finline-functions  -DRANDOM_SIZE=1048576 -DSEED=0 -DSORT=multi_mergesort multi_mergesort2011783405.c simpleMain.c -o multi_mergesort162962643
	sim-cache -cache:dl1 dl1:256:32:1:l -cache:dl2 dl2:131072:32:1:l -cache:il1 il1:256:32:1:l -cache:il2 dl2 multi_mergesort162962643
	sim-cache -cache:dl1 dl1:256:32:1:l -cache:dl2 dl2:65536:32:1:l -cache:il1 il1:256:32:1:l -cache:il2 dl2 multi_mergesort162962643
	sim-cache -cache:dl1 dl1:1:32:256:l -cache:dl2 dl2:1:32:131072:l -cache:il1 il1:1:32:256:l -cache:il2 dl2 multi_mergesort162962643
	sim-cache -cache:dl1 dl1:1:32:256:l -cache:dl2 dl2:1:32:65536:l -cache:il1 il1:1:32:256:l -cache:il2 dl2 multi_mergesort162962643
	sim-bpred -bpred bimod -bpred:bimod 512 multi_mergesort162962643
	sim-bpred -bpred bimod -bpred:bimod 1024 multi_mergesort162962643
	sim-bpred -bpred bimod -bpred:bimod 2048 multi_mergesort162962643
	sim-bpred -bpred 2lev -bpred:2lev 1 512 10 1 multi_mergesort162962643
	sim-bpred -bpred 2lev -bpred:2lev 1 1024 10 1 multi_mergesort162962643
	sim-bpred -bpred 2lev -bpred:2lev 1 2048 10 1 multi_mergesort162962643
	sim-bpred -bpred 2lev -bpred:2lev 1 4096 10 1 multi_mergesort162962643
	sslittle-na-sstrix-gcc -Wall -O3 -funroll-loops -finline-functions  -DRANDOM_SIZE=2097152 -DSEED=0 -DSORT=multi_mergesort multi_mergesort2011783405.c simpleMain.c -o multi_mergesort162962643
	sim-cache -cache:dl1 dl1:256:32:1:l -cache:dl2 dl2:131072:32:1:l -cache:il1 il1:256:32:1:l -cache:il2 dl2 multi_mergesort162962643
	sim-cache -cache:dl1 dl1:256:32:1:l -cache:dl2 dl2:65536:32:1:l -cache:il1 il1:256:32:1:l -cache:il2 dl2 multi_mergesort162962643
	sim-cache -cache:dl1 dl1:1:32:256:l -cache:dl2 dl2:1:32:131072:l -cache:il1 il1:1:32:256:l -cache:il2 dl2 multi_mergesort162962643
	sim-cache -cache:dl1 dl1:1:32:256:l -cache:dl2 dl2:1:32:65536:l -cache:il1 il1:1:32:256:l -cache:il2 dl2 multi_mergesort162962643
	sim-bpred -bpred bimod -bpred:bimod 512 multi_mergesort162962643
	sim-bpred -bpred bimod -bpred:bimod 1024 multi_mergesort162962643
	sim-bpred -bpred bimod -bpred:bimod 2048 multi_mergesort162962643
	sim-bpred -bpred 2lev -bpred:2lev 1 512 10 1 multi_mergesort162962643
	sim-bpred -bpred 2lev -bpred:2lev 1 1024 10 1 multi_mergesort162962643
	sim-bpred -bpred 2lev -bpred:2lev 1 2048 10 1 multi_mergesort162962643
	sim-bpred -bpred 2lev -bpred:2lev 1 4096 10 1 multi_mergesort162962643
	sslittle-na-sstrix-gcc -Wall -O3 -funroll-loops -finline-functions  -DRANDOM_SIZE=4194304 -DSEED=0 -DSORT=multi_mergesort multi_mergesort2011783405.c simpleMain.c -o multi_mergesort162962643
	sim-cache -cache:dl1 dl1:256:32:1:l -cache:dl2 dl2:131072:32:1:l -cache:il1 il1:256:32:1:l -cache:il2 dl2 multi_mergesort162962643
	sim-cache -cache:dl1 dl1:256:32:1:l -cache:dl2 dl2:65536:32:1:l -cache:il1 il1:256:32:1:l -cache:il2 dl2 multi_mergesort162962643
	sim-cache -cache:dl1 dl1:1:32:256:l -cache:dl2 dl2:1:32:131072:l -cache:il1 il1:1:32:256:l -cache:il2 dl2 multi_mergesort162962643
	sim-cache -cache:dl1 dl1:1:32:256:l -cache:dl2 dl2:1:32:65536:l -cache:il1 il1:1:32:256:l -cache:il2 dl2 multi_mergesort162962643
	sim-bpred -bpred bimod -bpred:bimod 512 multi_mergesort162962643
	sim-bpred -bpred bimod -bpred:bimod 1024 multi_mergesort162962643
	sim-bpred -bpred bimod -bpred:bimod 2048 multi_mergesort162962643
	sim-bpred -bpred 2lev -bpred:2lev 1 512 10 1 multi_mergesort162962643
	sim-bpred -bpred 2lev -bpred:2lev 1 1024 10 1 multi_mergesort162962643
	sim-bpred -bpred 2lev -bpred:2lev 1 2048 10 1 multi_mergesort162962643
	sim-bpred -bpred 2lev -bpred:2lev 1 4096 10 1 multi_mergesort162962643
