Thu Mar 25 21:31:18 2004
Run as: "./simple -c  -M 65536 on2_bubblesort"
-------------------------------------------------------------------------------------------------
sim-cache                                     4096 |         4096 |         4096 |         4096 |         8192 |         8192 |         8192 |         8192 |        16384 |        16384 |        16384 |        16384 |        32768 |        32768 |        32768 |        32768 |        65536 |        65536 |        65536 |        65536 |
-cache:dl1 dl1:256:32:1:l -cache:dl2 dl2:131072:32:1:l -cache:il1 il1:256:32:1:l -cache:il2 dl2
-cache:dl1 dl1:256:32:1:l -cache:dl2 dl2:65536:32:1:l -cache:il1 il1:256:32:1:l -cache:il2 dl2
-cache:dl1 dl1:1:32:256:l -cache:dl2 dl2:1:32:131072:l -cache:il1 il1:1:32:256:l -cache:il2 dl2
-cache:dl1 dl1:1:32:256:l -cache:dl2 dl2:1:32:65536:l -cache:il1 il1:1:32:256:l -cache:il2 dl2
-------------------------------------------------------------------------------------------------
sim_num_insn                              61095030 |     61095030 |     61095030 |     61095030 |    244200282 |    244200282 |    244200282 |    244200282 |    971975343 |    971975343 |    971975343 |    971975343 |   3890036528 |   3890036528 |   3890036528 |   3890036528 |  15554423378 |  15554423378 |  15554423378 |  15554423378 |
sim_num_refs                              25277438 |     25277438 |     25277438 |     25277438 |    101134808 |    101134808 |    101134808 |    101134808 |    401618750 |    401618750 |    401618750 |    401618750 |   1608498986 |   1608498986 |   1608498986 |   1608498986 |   6431382078 |   6431382078 |   6431382078 |   6431382078 |
sim_elapsed_time                                37 |           37 |           50 |           43 |          150 |          151 |          165 |          156 |          599 |          606 |          615 |          599 |         2380 |         2391 |         2388 |         2355 |         9460 |         9410 |         9339 |         9128 |
sim_inst_rate                         1651217.0270 | 1651217.0270 | 1221900.6000 | 1420814.6512 | 1628001.8800 | 1617220.4106 | 1480001.7091 | 1565386.4231 | 1622663.3439 | 1603919.7079 | 1580447.7122 | 1622663.3439 | 1634469.1294 | 1626949.6144 | 1628993.5209 | 1651820.1817 | 1644230.8011 | 1652967.4153 | 1665534.1448 | 1704034.1124 |
il1.accesses                              61095030 |     61095030 |     61095030 |     61095030 |    244200282 |    244200282 |    244200282 |    244200282 |    971975343 |    971975343 |    971975343 |    971975343 |   3890036528 |   3890036528 |   3890036528 |   3890036528 |  15554423378 |  15554423378 |  15554423378 |  15554423378 |
il1.hits                                  61094646 |     61094646 |     61094705 |     61094705 |    244199897 |    244199897 |    244199956 |    244199956 |    971974965 |    971974965 |    971975017 |    971975017 |   3890036149 |   3890036149 |   3890036201 |   3890036201 |  15554422999 |  15554422999 |  15554423051 |  15554423051 |
il1.misses                                     384 |          384 |          325 |          325 |          385 |          385 |          326 |          326 |          378 |          378 |          326 |          326 |          379 |          379 |          327 |          327 |          379 |          379 |          327 |          327 |
il1.replacements                               194 |          194 |           69 |           69 |          194 |          194 |           70 |           70 |          187 |          187 |           70 |           70 |          187 |          187 |           71 |           71 |          187 |          187 |           71 |           71 |
il1.writebacks                                   0 |            0 |            0 |            0 |            0 |            0 |            0 |            0 |            0 |            0 |            0 |            0 |            0 |            0 |            0 |            0 |            0 |            0 |            0 |            0 |
il1.invalidations                                0 |            0 |            0 |            0 |            0 |            0 |            0 |            0 |            0 |            0 |            0 |            0 |            0 |            0 |            0 |            0 |            0 |            0 |            0 |            0 |
il1.miss_rate                               0.0000 |       0.0000 |       0.0000 |       0.0000 |       0.0000 |       0.0000 |       0.0000 |       0.0000 |       0.0000 |       0.0000 |       0.0000 |       0.0000 |       0.0000 |       0.0000 |       0.0000 |       0.0000 |       0.0000 |       0.0000 |       0.0000 |       0.0000 |
il1.repl_rate                               0.0000 |       0.0000 |       0.0000 |       0.0000 |       0.0000 |       0.0000 |       0.0000 |       0.0000 |       0.0000 |       0.0000 |       0.0000 |       0.0000 |       0.0000 |       0.0000 |       0.0000 |       0.0000 |       0.0000 |       0.0000 |       0.0000 |       0.0000 |
il1.wb_rate                                 0.0000 |       0.0000 |       0.0000 |       0.0000 |       0.0000 |       0.0000 |       0.0000 |       0.0000 |       0.0000 |       0.0000 |       0.0000 |       0.0000 |       0.0000 |       0.0000 |       0.0000 |       0.0000 |       0.0000 |       0.0000 |       0.0000 |       0.0000 |
il1.inv_rate                                0.0000 |       0.0000 |       0.0000 |       0.0000 |       0.0000 |       0.0000 |       0.0000 |       0.0000 |       0.0000 |       0.0000 |       0.0000 |       0.0000 |       0.0000 |       0.0000 |       0.0000 |       0.0000 |       0.0000 |       0.0000 |       0.0000 |       0.0000 |
dl1.accesses                              25277508 |     25277508 |     25277508 |     25277508 |    101134878 |    101134878 |    101134878 |    101134878 |    401618820 |    401618820 |    401618820 |    401618820 |   1608499056 |   1608499056 |   1608499056 |   1608499056 |   6431382148 |   6431382148 |   6431382148 |   6431382148 |
dl1.hits                                  24749113 |     24749113 |     24488065 |     24488065 |     97457037 |     97457037 |     97196123 |     97196123 |    385350545 |    385350545 |    385089985 |    385089985 |   1541884485 |   1541884485 |   1541624237 |   1541624237 |   6163411441 |   6163411441 |   6163152065 |   6163152065 |
dl1.misses                                  528395 |       528395 |       789443 |       789443 |      3677841 |      3677841 |      3938755 |      3938755 |     16268275 |     16268275 |     16528835 |     16528835 |     66614571 |     66614571 |     66874819 |     66874819 |    267970707 |    267970707 |    268230083 |    268230083 |
dl1.replacements                            528139 |       528139 |       789187 |       789187 |      3677585 |      3677585 |      3938499 |      3938499 |     16268019 |     16268019 |     16528579 |     16528579 |     66614315 |     66614315 |     66874563 |     66874563 |    267970451 |    267970451 |    268229827 |    268229827 |
dl1.writebacks                              501544 |       501544 |       756740 |       756740 |      3435336 |      3435336 |      3653015 |      3653015 |     14843225 |     14843225 |     14985778 |     14985778 |     60164859 |     60164859 |     60243005 |     60243005 |    240691571 |    240691571 |    240723488 |    240723488 |
dl1.invalidations                                0 |            0 |            0 |            0 |            0 |            0 |            0 |            0 |            0 |            0 |            0 |            0 |            0 |            0 |            0 |            0 |            0 |            0 |            0 |            0 |
dl1.miss_rate                               0.0209 |       0.0209 |       0.0312 |       0.0312 |       0.0364 |       0.0364 |       0.0389 |       0.0389 |       0.0405 |       0.0405 |       0.0412 |       0.0412 |       0.0414 |       0.0414 |       0.0416 |       0.0416 |       0.0417 |       0.0417 |       0.0417 |       0.0417 |
dl1.repl_rate                               0.0209 |       0.0209 |       0.0312 |       0.0312 |       0.0364 |       0.0364 |       0.0389 |       0.0389 |       0.0405 |       0.0405 |       0.0412 |       0.0412 |       0.0414 |       0.0414 |       0.0416 |       0.0416 |       0.0417 |       0.0417 |       0.0417 |       0.0417 |
dl1.wb_rate                                 0.0198 |       0.0198 |       0.0299 |       0.0299 |       0.0340 |       0.0340 |       0.0361 |       0.0361 |       0.0370 |       0.0370 |       0.0373 |       0.0373 |       0.0374 |       0.0374 |       0.0375 |       0.0375 |       0.0374 |       0.0374 |       0.0374 |       0.0374 |
dl1.inv_rate                                0.0000 |       0.0000 |       0.0000 |       0.0000 |       0.0000 |       0.0000 |       0.0000 |       0.0000 |       0.0000 |       0.0000 |       0.0000 |       0.0000 |       0.0000 |       0.0000 |       0.0000 |       0.0000 |       0.0000 |       0.0000 |       0.0000 |       0.0000 |
dl2.accesses                               1030323 |      1030323 |      1546508 |      1546508 |      7113562 |      7113562 |      7592096 |      7592096 |     31111878 |     31111878 |     31514939 |     31514939 |    126779809 |    126779809 |    127118151 |    127118151 |    508662657 |    508662657 |    508953898 |    508953898 |
dl2.hits                                   1029043 |      1029043 |      1545256 |      1545256 |      7111769 |      7111769 |      7590331 |      7590331 |     31109064 |     31109064 |     31512151 |     31512151 |    126774946 |    126774946 |    127113314 |    127113314 |    508653698 |    508653698 |    508944965 |    508944965 |
dl2.misses                                    1280 |         1280 |         1252 |         1252 |         1793 |         1793 |         1765 |         1765 |         2814 |         2814 |         2788 |         2788 |         4863 |         4863 |         4837 |         4837 |         8959 |         8959 |         8933 |         8933 |
dl2.replacements                               170 |          170 |            0 |            0 |          171 |          171 |            0 |            0 |          172 |          172 |            0 |            0 |          173 |          173 |            0 |            0 |          173 |          173 |            0 |            0 |
dl2.writebacks                                  32 |           32 |            0 |            0 |           30 |           30 |            0 |            0 |           27 |           27 |            0 |            0 |           27 |           27 |            0 |            0 |           27 |           27 |            0 |            0 |
dl2.invalidations                                0 |            0 |            0 |            0 |            0 |            0 |            0 |            0 |            0 |            0 |            0 |            0 |            0 |            0 |            0 |            0 |            0 |            0 |            0 |            0 |
dl2.miss_rate                               0.0012 |       0.0012 |       0.0008 |       0.0008 |       0.0003 |       0.0003 |       0.0002 |       0.0002 |       0.0001 |       0.0001 |       0.0001 |       0.0001 |       0.0000 |       0.0000 |       0.0000 |       0.0000 |       0.0000 |       0.0000 |       0.0000 |       0.0000 |
dl2.repl_rate                               0.0002 |       0.0002 |       0.0000 |       0.0000 |       0.0000 |       0.0000 |       0.0000 |       0.0000 |       0.0000 |       0.0000 |       0.0000 |       0.0000 |       0.0000 |       0.0000 |       0.0000 |       0.0000 |       0.0000 |       0.0000 |       0.0000 |       0.0000 |
dl2.wb_rate                                 0.0000 |       0.0000 |       0.0000 |       0.0000 |       0.0000 |       0.0000 |       0.0000 |       0.0000 |       0.0000 |       0.0000 |       0.0000 |       0.0000 |       0.0000 |       0.0000 |       0.0000 |       0.0000 |       0.0000 |       0.0000 |       0.0000 |       0.0000 |
dl2.inv_rate                                0.0000 |       0.0000 |       0.0000 |       0.0000 |       0.0000 |       0.0000 |       0.0000 |       0.0000 |       0.0000 |       0.0000 |       0.0000 |       0.0000 |       0.0000 |       0.0000 |       0.0000 |       0.0000 |       0.0000 |       0.0000 |       0.0000 |       0.0000 |
itlb.accesses                             61095030 |     61095030 |     61095030 |     61095030 |    244200282 |    244200282 |    244200282 |    244200282 |    971975343 |    971975343 |    971975343 |    971975343 |   3890036528 |   3890036528 |   3890036528 |   3890036528 |  15554423378 |  15554423378 |  15554423378 |  15554423378 |
itlb.hits                                 61095023 |     61095023 |     61095023 |     61095023 |    244200275 |    244200275 |    244200275 |    244200275 |    971975336 |    971975336 |    971975336 |    971975336 |   3890036521 |   3890036521 |   3890036521 |   3890036521 |  15554423371 |  15554423371 |  15554423371 |  15554423371 |
itlb.misses                                      7 |            7 |            7 |            7 |            7 |            7 |            7 |            7 |            7 |            7 |            7 |            7 |            7 |            7 |            7 |            7 |            7 |            7 |            7 |            7 |
itlb.replacements                                0 |            0 |            0 |            0 |            0 |            0 |            0 |            0 |            0 |            0 |            0 |            0 |            0 |            0 |            0 |            0 |            0 |            0 |            0 |            0 |
itlb.writebacks                                  0 |            0 |            0 |            0 |            0 |            0 |            0 |            0 |            0 |            0 |            0 |            0 |            0 |            0 |            0 |            0 |            0 |            0 |            0 |            0 |
itlb.invalidations                               0 |            0 |            0 |            0 |            0 |            0 |            0 |            0 |            0 |            0 |            0 |            0 |            0 |            0 |            0 |            0 |            0 |            0 |            0 |            0 |
itlb.miss_rate                              0.0000 |       0.0000 |       0.0000 |       0.0000 |       0.0000 |       0.0000 |       0.0000 |       0.0000 |       0.0000 |       0.0000 |       0.0000 |       0.0000 |       0.0000 |       0.0000 |       0.0000 |       0.0000 |       0.0000 |       0.0000 |       0.0000 |       0.0000 |
itlb.repl_rate                              0.0000 |       0.0000 |       0.0000 |       0.0000 |       0.0000 |       0.0000 |       0.0000 |       0.0000 |       0.0000 |       0.0000 |       0.0000 |       0.0000 |       0.0000 |       0.0000 |       0.0000 |       0.0000 |       0.0000 |       0.0000 |       0.0000 |       0.0000 |
itlb.wb_rate                                0.0000 |       0.0000 |       0.0000 |       0.0000 |       0.0000 |       0.0000 |       0.0000 |       0.0000 |       0.0000 |       0.0000 |       0.0000 |       0.0000 |       0.0000 |       0.0000 |       0.0000 |       0.0000 |       0.0000 |       0.0000 |       0.0000 |       0.0000 |
itlb.inv_rate                               0.0000 |       0.0000 |       0.0000 |       0.0000 |       0.0000 |       0.0000 |       0.0000 |       0.0000 |       0.0000 |       0.0000 |       0.0000 |       0.0000 |       0.0000 |       0.0000 |       0.0000 |       0.0000 |       0.0000 |       0.0000 |       0.0000 |       0.0000 |
dtlb.accesses                             25277508 |     25277508 |     25277508 |     25277508 |    101134878 |    101134878 |    101134878 |    101134878 |    401618820 |    401618820 |    401618820 |    401618820 |   1608499056 |   1608499056 |   1608499056 |   1608499056 |   6431382148 |   6431382148 |   6431382148 |   6431382148 |
dtlb.hits                                 25277498 |     25277498 |     25277498 |     25277498 |    101134864 |    101134864 |    101134864 |    101134864 |    401618798 |    401618798 |    401618798 |    401618798 |   1608499018 |   1608499018 |   1608499018 |   1608499018 |   6431382078 |   6431382078 |   6431382078 |   6431382078 |
dtlb.misses                                     10 |           10 |           10 |           10 |           14 |           14 |           14 |           14 |           22 |           22 |           22 |           22 |           38 |           38 |           38 |           38 |           70 |           70 |           70 |           70 |
dtlb.replacements                                0 |            0 |            0 |            0 |            0 |            0 |            0 |            0 |            0 |            0 |            0 |            0 |            0 |            0 |            0 |            0 |            0 |            0 |            0 |            0 |
dtlb.writebacks                                  0 |            0 |            0 |            0 |            0 |            0 |            0 |            0 |            0 |            0 |            0 |            0 |            0 |            0 |            0 |            0 |            0 |            0 |            0 |            0 |
dtlb.invalidations                               0 |            0 |            0 |            0 |            0 |            0 |            0 |            0 |            0 |            0 |            0 |            0 |            0 |            0 |            0 |            0 |            0 |            0 |            0 |            0 |
dtlb.miss_rate                              0.0000 |       0.0000 |       0.0000 |       0.0000 |       0.0000 |       0.0000 |       0.0000 |       0.0000 |       0.0000 |       0.0000 |       0.0000 |       0.0000 |       0.0000 |       0.0000 |       0.0000 |       0.0000 |       0.0000 |       0.0000 |       0.0000 |       0.0000 |
dtlb.repl_rate                              0.0000 |       0.0000 |       0.0000 |       0.0000 |       0.0000 |       0.0000 |       0.0000 |       0.0000 |       0.0000 |       0.0000 |       0.0000 |       0.0000 |       0.0000 |       0.0000 |       0.0000 |       0.0000 |       0.0000 |       0.0000 |       0.0000 |       0.0000 |
dtlb.wb_rate                                0.0000 |       0.0000 |       0.0000 |       0.0000 |       0.0000 |       0.0000 |       0.0000 |       0.0000 |       0.0000 |       0.0000 |       0.0000 |       0.0000 |       0.0000 |       0.0000 |       0.0000 |       0.0000 |       0.0000 |       0.0000 |       0.0000 |       0.0000 |
dtlb.inv_rate                               0.0000 |       0.0000 |       0.0000 |       0.0000 |       0.0000 |       0.0000 |       0.0000 |       0.0000 |       0.0000 |       0.0000 |       0.0000 |       0.0000 |       0.0000 |       0.0000 |       0.0000 |       0.0000 |       0.0000 |       0.0000 |       0.0000 |       0.0000 |
ld_text_base                            0x00400000 |   0x00400000 |   0x00400000 |   0x00400000 |   0x00400000 |   0x00400000 |   0x00400000 |   0x00400000 |   0x00400000 |   0x00400000 |   0x00400000 |   0x00400000 |   0x00400000 |   0x00400000 |   0x00400000 |   0x00400000 |   0x00400000 |   0x00400000 |   0x00400000 |   0x00400000 |
ld_text_size                                 26208 |        26208 |        26208 |        26208 |        26240 |        26240 |        26240 |        26240 |        26256 |        26256 |        26256 |        26256 |        26288 |        26288 |        26288 |        26288 |        26288 |        26288 |        26288 |        26288 |
ld_data_base                            0x10000000 |   0x10000000 |   0x10000000 |   0x10000000 |   0x10000000 |   0x10000000 |   0x10000000 |   0x10000000 |   0x10000000 |   0x10000000 |   0x10000000 |   0x10000000 |   0x10000000 |   0x10000000 |   0x10000000 |   0x10000000 |   0x10000000 |   0x10000000 |   0x10000000 |   0x10000000 |
ld_data_size                                  4096 |         4096 |         4096 |         4096 |         4096 |         4096 |         4096 |         4096 |         4096 |         4096 |         4096 |         4096 |         4096 |         4096 |         4096 |         4096 |         4096 |         4096 |         4096 |         4096 |
ld_stack_base                           0x7fffc000 |   0x7fffc000 |   0x7fffc000 |   0x7fffc000 |   0x7fffc000 |   0x7fffc000 |   0x7fffc000 |   0x7fffc000 |   0x7fffc000 |   0x7fffc000 |   0x7fffc000 |   0x7fffc000 |   0x7fffc000 |   0x7fffc000 |   0x7fffc000 |   0x7fffc000 |   0x7fffc000 |   0x7fffc000 |   0x7fffc000 |   0x7fffc000 |
ld_stack_size                                16384 |        16384 |        16384 |        16384 |        16384 |        16384 |        16384 |        16384 |        16384 |        16384 |        16384 |        16384 |        16384 |        16384 |        16384 |        16384 |        16384 |        16384 |        16384 |        16384 |
ld_prog_entry                           0x00400140 |   0x00400140 |   0x00400140 |   0x00400140 |   0x00400140 |   0x00400140 |   0x00400140 |   0x00400140 |   0x00400140 |   0x00400140 |   0x00400140 |   0x00400140 |   0x00400140 |   0x00400140 |   0x00400140 |   0x00400140 |   0x00400140 |   0x00400140 |   0x00400140 |   0x00400140 |
ld_environ_base                         0x7fff8000 |   0x7fff8000 |   0x7fff8000 |   0x7fff8000 |   0x7fff8000 |   0x7fff8000 |   0x7fff8000 |   0x7fff8000 |   0x7fff8000 |   0x7fff8000 |   0x7fff8000 |   0x7fff8000 |   0x7fff8000 |   0x7fff8000 |   0x7fff8000 |   0x7fff8000 |   0x7fff8000 |   0x7fff8000 |   0x7fff8000 |   0x7fff8000 |
ld_target_big_endian                             0 |            0 |            0 |            0 |            0 |            0 |            0 |            0 |            0 |            0 |            0 |            0 |            0 |            0 |            0 |            0 |            0 |            0 |            0 |            0 |
mem.page_count                                  17 |           17 |           17 |           17 |           21 |           21 |           21 |           21 |           29 |           29 |           29 |           29 |           45 |           45 |           45 |           45 |           77 |           77 |           77 |           77 |
mem.page_mem                                   68k |          68k |          68k |          68k |          84k |          84k |          84k |          84k |         116k |         116k |         116k |         116k |         180k |         180k |         180k |         180k |         308k |         308k |         308k |         308k |
mem.ptab_misses                                 17 |           17 |           17 |           17 |           21 |           21 |           21 |           21 |           29 |           29 |           29 |           29 |           45 |           45 |           45 |           45 |           77 |           77 |           77 |           77 |
mem.ptab_accesses                        295097598 |    295097598 |    295097598 |    295097598 |   1179233538 |   1179233538 |   1179233538 |   1179233538 |   4691301762 |   4691301762 |   4691301762 |   4691301762 |  18777307166 |  18777307166 |  18777307166 |  18777307166 |  75080620750 |  75080620750 |  75080620750 |  75080620750 |
mem.ptab_miss_rate                          0.0000 |       0.0000 |       0.0000 |       0.0000 |       0.0000 |       0.0000 |       0.0000 |       0.0000 |       0.0000 |       0.0000 |       0.0000 |       0.0000 |       0.0000 |       0.0000 |       0.0000 |       0.0000 |       0.0000 |       0.0000 |       0.0000 |       0.0000 |
-------------------------------------------------------------------------------------------------
sim-bpred                                     4096 |         4096 |         4096 |         4096 |         4096 |         4096 |         4096 |         8192 |         8192 |         8192 |         8192 |         8192 |         8192 |         8192 |        16384 |        16384 |        16384 |        16384 |        16384 |        16384 |        16384 |        32768 |        32768 |        32768 |        32768 |        32768 |        32768 |        32768 |        65536 |        65536 |        65536 |        65536 |        65536 |        65536 |        65536 |
-bpred bimod -bpred:bimod 512
-bpred bimod -bpred:bimod 1024
-bpred bimod -bpred:bimod 2048
-bpred 2lev -bpred:2lev 1 512 10 1
-bpred 2lev -bpred:2lev 1 1024 10 1
-bpred 2lev -bpred:2lev 1 2048 10 1
-bpred 2lev -bpred:2lev 1 4096 10 1
-------------------------------------------------------------------------------------------------
sim_num_insn                              61095030 |     61095030 |     61095030 |     61095030 |     61095030 |     61095030 |     61095030 |    244200282 |    244200282 |    244200282 |    244200282 |    244200282 |    244200282 |    244200282 |    971975343 |    971975343 |    971975343 |    971975343 |    971975343 |    971975343 |    971975343 |   3890036528 |   3890036528 |   3890036528 |   3890036528 |   3890036528 |   3890036528 |   3890036528 |  15554423378 |  15554423378 |  15554423378 |  15554423378 |  15554423378 |  15554423378 |  15554423378 |
sim_num_refs                              25277438 |     25277438 |     25277438 |     25277438 |     25277438 |     25277438 |     25277438 |    101134808 |    101134808 |    101134808 |    101134808 |    101134808 |    101134808 |    101134808 |    401618750 |    401618750 |    401618750 |    401618750 |    401618750 |    401618750 |    401618750 |   1608498986 |   1608498986 |   1608498986 |   1608498986 |   1608498986 |   1608498986 |   1608498986 |   6431382078 |   6431382078 |   6431382078 |   6431382078 |   6431382078 |   6431382078 |   6431382078 |
sim_elapsed_time                                15 |           15 |           15 |           15 |           15 |           15 |           16 |           61 |           60 |           60 |           62 |           62 |           61 |           62 |          241 |          235 |          236 |          242 |          241 |          242 |          243 |          949 |          940 |          949 |          962 |          958 |          968 |          971 |         4217 |         3608 |         3849 |         3875 |         3796 |         3591 |         1887 |
sim_inst_rate                         4073002.0000 | 4073002.0000 | 4073002.0000 | 4073002.0000 | 4073002.0000 | 4073002.0000 | 3818439.3750 | 4003283.3115 | 4070004.7000 | 4070004.7000 | 3938714.2258 | 3938714.2258 | 4003283.3115 | 3938714.2258 | 4033092.7095 | 4136065.2894 | 4118539.5890 | 4016427.0372 | 4033092.7095 | 4016427.0372 | 3999898.5309 | 4099090.1243 | 4138336.7319 | 4099090.1243 | 4043697.0146 | 4060580.9269 | 4018632.7769 | 4006216.8157 | 3688504.4766 | 4311092.9540 | 4041159.6202 | 4014044.7427 | 4097582.5548 | 4331501.9153 | 8242937.6672 |
sim_num_branches                          10534437 |     10534437 |     10534437 |     10534437 |     10534437 |     10534437 |     10534437 |     42040892 |     42040892 |     42040892 |     42040892 |     42040892 |     42040892 |     42040892 |    167967799 |    167967799 |    167967799 |    167967799 |    167967799 |    167967799 |    167967799 |    671477354 |    671477354 |    671477354 |    671477354 |    671477354 |    671477354 |    671477354 |   2685123982 |   2685123982 |   2685123982 |   2685123982 |   2685123982 |   2685123982 |   2685123982 |
sim_IPB                                     5.7996 |       5.7996 |       5.7996 |       5.7996 |       5.7996 |       5.7996 |       5.7996 |       5.8086 |       5.8086 |       5.8086 |       5.8086 |       5.8086 |       5.8086 |       5.8086 |       5.7867 |       5.7867 |       5.7867 |       5.7867 |       5.7867 |       5.7867 |       5.7867 |       5.7933 |       5.7933 |       5.7933 |       5.7933 |       5.7933 |       5.7933 |       5.7933 |       5.7928 |       5.7928 |       5.7928 |       5.7928 |       5.7928 |       5.7928 |       5.7928 |
bpred_bimod.lookups                       10534437 |     10534437 |     10534437 |xxxxxxxxxxxxx |xxxxxxxxxxxxx |xxxxxxxxxxxxx |xxxxxxxxxxxxx |     42040892 |     42040892 |     42040892 |xxxxxxxxxxxxx |xxxxxxxxxxxxx |xxxxxxxxxxxxx |xxxxxxxxxxxxx |    167967799 |    167967799 |    167967799 |xxxxxxxxxxxxx |xxxxxxxxxxxxx |xxxxxxxxxxxxx |xxxxxxxxxxxxx |    671477354 |    671477354 |    671477354 |xxxxxxxxxxxxx |xxxxxxxxxxxxx |xxxxxxxxxxxxx |xxxxxxxxxxxxx |   2685123982 |   2685123982 |   2685123982 |
bpred_bimod.updates                       10534437 |     10534437 |     10534437 |xxxxxxxxxxxxx |xxxxxxxxxxxxx |xxxxxxxxxxxxx |xxxxxxxxxxxxx |     42040892 |     42040892 |     42040892 |xxxxxxxxxxxxx |xxxxxxxxxxxxx |xxxxxxxxxxxxx |xxxxxxxxxxxxx |    167967799 |    167967799 |    167967799 |xxxxxxxxxxxxx |xxxxxxxxxxxxx |xxxxxxxxxxxxx |xxxxxxxxxxxxx |    671477354 |    671477354 |    671477354 |xxxxxxxxxxxxx |xxxxxxxxxxxxx |xxxxxxxxxxxxx |xxxxxxxxxxxxx |   2685123982 |   2685123982 |   2685123982 |
bpred_bimod.addr_hits                      8109522 |      8109523 |      8109524 |xxxxxxxxxxxxx |xxxxxxxxxxxxx |xxxxxxxxxxxxx |xxxxxxxxxxxxx |     32351835 |     32351837 |     32351837 |xxxxxxxxxxxxx |xxxxxxxxxxxxx |xxxxxxxxxxxxx |xxxxxxxxxxxxx |    129459069 |    129459070 |    129459070 |xxxxxxxxxxxxx |xxxxxxxxxxxxx |xxxxxxxxxxxxx |xxxxxxxxxxxxx |    518160910 |    518160912 |    518160913 |xxxxxxxxxxxxx |xxxxxxxxxxxxx |xxxxxxxxxxxxx |xxxxxxxxxxxxx |   2073717045 |   2073717047 |   2073717048 |
bpred_bimod.dir_hits                       8109627 |      8109625 |      8109624 |xxxxxxxxxxxxx |xxxxxxxxxxxxx |xxxxxxxxxxxxx |xxxxxxxxxxxxx |     32351937 |     32351938 |     32351937 |xxxxxxxxxxxxx |xxxxxxxxxxxxx |xxxxxxxxxxxxx |xxxxxxxxxxxxx |    129459174 |    129459173 |    129459172 |xxxxxxxxxxxxx |xxxxxxxxxxxxx |xxxxxxxxxxxxx |xxxxxxxxxxxxx |    518161016 |    518161016 |    518161016 |xxxxxxxxxxxxx |xxxxxxxxxxxxx |xxxxxxxxxxxxx |xxxxxxxxxxxxx |   2073717149 |   2073717149 |   2073717149 |
bpred_bimod.misses                         2424810 |      2424812 |      2424813 |xxxxxxxxxxxxx |xxxxxxxxxxxxx |xxxxxxxxxxxxx |xxxxxxxxxxxxx |      9688955 |      9688954 |      9688955 |xxxxxxxxxxxxx |xxxxxxxxxxxxx |xxxxxxxxxxxxx |xxxxxxxxxxxxx |     38508625 |     38508626 |     38508627 |xxxxxxxxxxxxx |xxxxxxxxxxxxx |xxxxxxxxxxxxx |xxxxxxxxxxxxx |    153316338 |    153316338 |    153316338 |xxxxxxxxxxxxx |xxxxxxxxxxxxx |xxxxxxxxxxxxx |xxxxxxxxxxxxx |    611406833 |    611406833 |    611406833 |
bpred_bimod.jr_hits                           8553 |         8553 |         8553 |xxxxxxxxxxxxx |xxxxxxxxxxxxx |xxxxxxxxxxxxx |xxxxxxxxxxxxx |        16745 |        16745 |        16745 |xxxxxxxxxxxxx |xxxxxxxxxxxxx |xxxxxxxxxxxxx |xxxxxxxxxxxxx |        33129 |        33129 |        33129 |xxxxxxxxxxxxx |xxxxxxxxxxxxx |xxxxxxxxxxxxx |xxxxxxxxxxxxx |        65897 |        65897 |        65897 |xxxxxxxxxxxxx |xxxxxxxxxxxxx |xxxxxxxxxxxxx |xxxxxxxxxxxxx |       131433 |       131433 |       131433 |
bpred_bimod.jr_seen                           8554 |         8554 |         8554 |xxxxxxxxxxxxx |xxxxxxxxxxxxx |xxxxxxxxxxxxx |xxxxxxxxxxxxx |        16746 |        16746 |        16746 |xxxxxxxxxxxxx |xxxxxxxxxxxxx |xxxxxxxxxxxxx |xxxxxxxxxxxxx |        33130 |        33130 |        33130 |xxxxxxxxxxxxx |xxxxxxxxxxxxx |xxxxxxxxxxxxx |xxxxxxxxxxxxx |        65898 |        65898 |        65898 |xxxxxxxxxxxxx |xxxxxxxxxxxxx |xxxxxxxxxxxxx |xxxxxxxxxxxxx |       131434 |       131434 |       131434 |
bpred_bimod.jr_non_ras_hits.PP                   0 |            0 |            0 |xxxxxxxxxxxxx |xxxxxxxxxxxxx |xxxxxxxxxxxxx |xxxxxxxxxxxxx |            0 |            0 |            0 |xxxxxxxxxxxxx |xxxxxxxxxxxxx |xxxxxxxxxxxxx |xxxxxxxxxxxxx |            0 |            0 |            0 |xxxxxxxxxxxxx |xxxxxxxxxxxxx |xxxxxxxxxxxxx |xxxxxxxxxxxxx |            0 |            0 |            0 |xxxxxxxxxxxxx |xxxxxxxxxxxxx |xxxxxxxxxxxxx |xxxxxxxxxxxxx |            0 |            0 |            0 |
bpred_bimod.jr_non_ras_seen.PP                   0 |            0 |            0 |xxxxxxxxxxxxx |xxxxxxxxxxxxx |xxxxxxxxxxxxx |xxxxxxxxxxxxx |            0 |            0 |            0 |xxxxxxxxxxxxx |xxxxxxxxxxxxx |xxxxxxxxxxxxx |xxxxxxxxxxxxx |            0 |            0 |            0 |xxxxxxxxxxxxx |xxxxxxxxxxxxx |xxxxxxxxxxxxx |xxxxxxxxxxxxx |            0 |            0 |            0 |xxxxxxxxxxxxx |xxxxxxxxxxxxx |xxxxxxxxxxxxx |xxxxxxxxxxxxx |            0 |            0 |            0 |
bpred_bimod.bpred_addr_rate                 0.7698 |       0.7698 |       0.7698 |xxxxxxxxxxxxx |xxxxxxxxxxxxx |xxxxxxxxxxxxx |xxxxxxxxxxxxx |       0.7695 |       0.7695 |       0.7695 |xxxxxxxxxxxxx |xxxxxxxxxxxxx |xxxxxxxxxxxxx |xxxxxxxxxxxxx |       0.7707 |       0.7707 |       0.7707 |xxxxxxxxxxxxx |xxxxxxxxxxxxx |xxxxxxxxxxxxx |xxxxxxxxxxxxx |       0.7717 |       0.7717 |       0.7717 |xxxxxxxxxxxxx |xxxxxxxxxxxxx |xxxxxxxxxxxxx |xxxxxxxxxxxxx |       0.7723 |       0.7723 |       0.7723 |
bpred_bimod.bpred_dir_rate                  0.7698 |       0.7698 |       0.7698 |xxxxxxxxxxxxx |xxxxxxxxxxxxx |xxxxxxxxxxxxx |xxxxxxxxxxxxx |       0.7695 |       0.7695 |       0.7695 |xxxxxxxxxxxxx |xxxxxxxxxxxxx |xxxxxxxxxxxxx |xxxxxxxxxxxxx |       0.7707 |       0.7707 |       0.7707 |xxxxxxxxxxxxx |xxxxxxxxxxxxx |xxxxxxxxxxxxx |xxxxxxxxxxxxx |       0.7717 |       0.7717 |       0.7717 |xxxxxxxxxxxxx |xxxxxxxxxxxxx |xxxxxxxxxxxxx |xxxxxxxxxxxxx |       0.7723 |       0.7723 |       0.7723 |
bpred_bimod.bpred_jr_rate                   0.9999 |       0.9999 |       0.9999 |xxxxxxxxxxxxx |xxxxxxxxxxxxx |xxxxxxxxxxxxx |xxxxxxxxxxxxx |       0.9999 |       0.9999 |       0.9999 |xxxxxxxxxxxxx |xxxxxxxxxxxxx |xxxxxxxxxxxxx |xxxxxxxxxxxxx |       1.0000 |       1.0000 |       1.0000 |xxxxxxxxxxxxx |xxxxxxxxxxxxx |xxxxxxxxxxxxx |xxxxxxxxxxxxx |       1.0000 |       1.0000 |       1.0000 |xxxxxxxxxxxxx |xxxxxxxxxxxxx |xxxxxxxxxxxxx |xxxxxxxxxxxxx |       1.0000 |       1.0000 |       1.0000 |
bpred_bimod.bpred_jr_non_ras_rate.PP       <error: |      <error: |      <error: |xxxxxxxxxxxxx |xxxxxxxxxxxxx |xxxxxxxxxxxxx |xxxxxxxxxxxxx |      <error: |      <error: |      <error: |xxxxxxxxxxxxx |xxxxxxxxxxxxx |xxxxxxxxxxxxx |xxxxxxxxxxxxx |      <error: |      <error: |      <error: |xxxxxxxxxxxxx |xxxxxxxxxxxxx |xxxxxxxxxxxxx |xxxxxxxxxxxxx |      <error: |      <error: |      <error: |xxxxxxxxxxxxx |xxxxxxxxxxxxx |xxxxxxxxxxxxx |xxxxxxxxxxxxx |      <error: |      <error: |      <error: |
bpred_bimod.retstack_pushes                   8556 |         8556 |         8556 |xxxxxxxxxxxxx |xxxxxxxxxxxxx |xxxxxxxxxxxxx |xxxxxxxxxxxxx |        16748 |        16748 |        16748 |xxxxxxxxxxxxx |xxxxxxxxxxxxx |xxxxxxxxxxxxx |xxxxxxxxxxxxx |        33132 |        33132 |        33132 |xxxxxxxxxxxxx |xxxxxxxxxxxxx |xxxxxxxxxxxxx |xxxxxxxxxxxxx |        65900 |        65900 |        65900 |xxxxxxxxxxxxx |xxxxxxxxxxxxx |xxxxxxxxxxxxx |xxxxxxxxxxxxx |       131436 |       131436 |       131436 |
bpred_bimod.retstack_pops                     8554 |         8554 |         8554 |xxxxxxxxxxxxx |xxxxxxxxxxxxx |xxxxxxxxxxxxx |xxxxxxxxxxxxx |        16746 |        16746 |        16746 |xxxxxxxxxxxxx |xxxxxxxxxxxxx |xxxxxxxxxxxxx |xxxxxxxxxxxxx |        33130 |        33130 |        33130 |xxxxxxxxxxxxx |xxxxxxxxxxxxx |xxxxxxxxxxxxx |xxxxxxxxxxxxx |        65898 |        65898 |        65898 |xxxxxxxxxxxxx |xxxxxxxxxxxxx |xxxxxxxxxxxxx |xxxxxxxxxxxxx |       131434 |       131434 |       131434 |
bpred_bimod.used_ras.PP                       8554 |         8554 |         8554 |xxxxxxxxxxxxx |xxxxxxxxxxxxx |xxxxxxxxxxxxx |xxxxxxxxxxxxx |        16746 |        16746 |        16746 |xxxxxxxxxxxxx |xxxxxxxxxxxxx |xxxxxxxxxxxxx |xxxxxxxxxxxxx |        33130 |        33130 |        33130 |xxxxxxxxxxxxx |xxxxxxxxxxxxx |xxxxxxxxxxxxx |xxxxxxxxxxxxx |        65898 |        65898 |        65898 |xxxxxxxxxxxxx |xxxxxxxxxxxxx |xxxxxxxxxxxxx |xxxxxxxxxxxxx |       131434 |       131434 |       131434 |
bpred_bimod.ras_hits.PP                       8553 |         8553 |         8553 |xxxxxxxxxxxxx |xxxxxxxxxxxxx |xxxxxxxxxxxxx |xxxxxxxxxxxxx |        16745 |        16745 |        16745 |xxxxxxxxxxxxx |xxxxxxxxxxxxx |xxxxxxxxxxxxx |xxxxxxxxxxxxx |        33129 |        33129 |        33129 |xxxxxxxxxxxxx |xxxxxxxxxxxxx |xxxxxxxxxxxxx |xxxxxxxxxxxxx |        65897 |        65897 |        65897 |xxxxxxxxxxxxx |xxxxxxxxxxxxx |xxxxxxxxxxxxx |xxxxxxxxxxxxx |       131433 |       131433 |       131433 |
bpred_bimod.ras_rate.PP                     0.9999 |       0.9999 |       0.9999 |xxxxxxxxxxxxx |xxxxxxxxxxxxx |xxxxxxxxxxxxx |xxxxxxxxxxxxx |       0.9999 |       0.9999 |       0.9999 |xxxxxxxxxxxxx |xxxxxxxxxxxxx |xxxxxxxxxxxxx |xxxxxxxxxxxxx |       1.0000 |       1.0000 |       1.0000 |xxxxxxxxxxxxx |xxxxxxxxxxxxx |xxxxxxxxxxxxx |xxxxxxxxxxxxx |       1.0000 |       1.0000 |       1.0000 |xxxxxxxxxxxxx |xxxxxxxxxxxxx |xxxxxxxxxxxxx |xxxxxxxxxxxxx |       1.0000 |       1.0000 |       1.0000 |
bpred_2lev.lookups                   xxxxxxxxxxxxx |xxxxxxxxxxxxx |xxxxxxxxxxxxx |     10534437 |     10534437 |     10534437 |     10534437 |xxxxxxxxxxxxx |xxxxxxxxxxxxx |xxxxxxxxxxxxx |     42040892 |     42040892 |     42040892 |     42040892 |xxxxxxxxxxxxx |xxxxxxxxxxxxx |xxxxxxxxxxxxx |    167967799 |    167967799 |    167967799 |    167967799 |xxxxxxxxxxxxx |xxxxxxxxxxxxx |xxxxxxxxxxxxx |    671477354 |    671477354 |    671477354 |    671477354 |xxxxxxxxxxxxx |xxxxxxxxxxxxx |xxxxxxxxxxxxx |   2685123982 |   2685123982 |   2685123982 |   2685123982 |
bpred_2lev.updates                   xxxxxxxxxxxxx |xxxxxxxxxxxxx |xxxxxxxxxxxxx |     10534437 |     10534437 |     10534437 |     10534437 |xxxxxxxxxxxxx |xxxxxxxxxxxxx |xxxxxxxxxxxxx |     42040892 |     42040892 |     42040892 |     42040892 |xxxxxxxxxxxxx |xxxxxxxxxxxxx |xxxxxxxxxxxxx |    167967799 |    167967799 |    167967799 |    167967799 |xxxxxxxxxxxxx |xxxxxxxxxxxxx |xxxxxxxxxxxxx |    671477354 |    671477354 |    671477354 |    671477354 |xxxxxxxxxxxxx |xxxxxxxxxxxxx |xxxxxxxxxxxxx |   2685123982 |   2685123982 |   2685123982 |   2685123982 |
bpred_2lev.addr_hits                 xxxxxxxxxxxxx |xxxxxxxxxxxxx |xxxxxxxxxxxxx |      7943909 |      8344115 |      8574629 |      8674958 |xxxxxxxxxxxxx |xxxxxxxxxxxxx |xxxxxxxxxxxxx |     31228204 |     32228864 |     33002345 |     33338633 |xxxxxxxxxxxxx |xxxxxxxxxxxxx |xxxxxxxxxxxxx |    124912559 |    126963629 |    128791218 |    129378527 |xxxxxxxxxxxxx |xxxxxxxxxxxxx |xxxxxxxxxxxxx |    501107551 |    506195482 |    510761295 |    511385679 |xxxxxxxxxxxxx |xxxxxxxxxxxxx |xxxxxxxxxxxxx |   2011477463 |   2030444215 |   2046517017 |   2046123939 |
bpred_2lev.dir_hits                  xxxxxxxxxxxxx |xxxxxxxxxxxxx |xxxxxxxxxxxxx |      7944039 |      8344242 |      8574748 |      8675069 |xxxxxxxxxxxxx |xxxxxxxxxxxxx |xxxxxxxxxxxxx |     31228332 |     32228990 |     33002466 |     33338741 |xxxxxxxxxxxxx |xxxxxxxxxxxxx |xxxxxxxxxxxxx |    124912685 |    126963754 |    128791333 |    129378634 |xxxxxxxxxxxxx |xxxxxxxxxxxxx |xxxxxxxxxxxxx |    501107679 |    506195611 |    510761419 |    511385794 |xxxxxxxxxxxxx |xxxxxxxxxxxxx |xxxxxxxxxxxxx |   2011477590 |   2030444341 |   2046517138 |   2046124050 |
bpred_2lev.misses                    xxxxxxxxxxxxx |xxxxxxxxxxxxx |xxxxxxxxxxxxx |      2590398 |      2190195 |      1959689 |      1859368 |xxxxxxxxxxxxx |xxxxxxxxxxxxx |xxxxxxxxxxxxx |     10812560 |      9811902 |      9038426 |      8702151 |xxxxxxxxxxxxx |xxxxxxxxxxxxx |xxxxxxxxxxxxx |     43055114 |     41004045 |     39176466 |     38589165 |xxxxxxxxxxxxx |xxxxxxxxxxxxx |xxxxxxxxxxxxx |    170369675 |    165281743 |    160715935 |    160091560 |xxxxxxxxxxxxx |xxxxxxxxxxxxx |xxxxxxxxxxxxx |    673646392 |    654679641 |    638606844 |    638999932 |
bpred_2lev.jr_hits                   xxxxxxxxxxxxx |xxxxxxxxxxxxx |xxxxxxxxxxxxx |         8553 |         8553 |         8553 |         8553 |xxxxxxxxxxxxx |xxxxxxxxxxxxx |xxxxxxxxxxxxx |        16745 |        16745 |        16745 |        16745 |xxxxxxxxxxxxx |xxxxxxxxxxxxx |xxxxxxxxxxxxx |        33129 |        33129 |        33129 |        33129 |xxxxxxxxxxxxx |xxxxxxxxxxxxx |xxxxxxxxxxxxx |        65897 |        65897 |        65897 |        65897 |xxxxxxxxxxxxx |xxxxxxxxxxxxx |xxxxxxxxxxxxx |       131433 |       131433 |       131433 |       131433 |
bpred_2lev.jr_seen                   xxxxxxxxxxxxx |xxxxxxxxxxxxx |xxxxxxxxxxxxx |         8554 |         8554 |         8554 |         8554 |xxxxxxxxxxxxx |xxxxxxxxxxxxx |xxxxxxxxxxxxx |        16746 |        16746 |        16746 |        16746 |xxxxxxxxxxxxx |xxxxxxxxxxxxx |xxxxxxxxxxxxx |        33130 |        33130 |        33130 |        33130 |xxxxxxxxxxxxx |xxxxxxxxxxxxx |xxxxxxxxxxxxx |        65898 |        65898 |        65898 |        65898 |xxxxxxxxxxxxx |xxxxxxxxxxxxx |xxxxxxxxxxxxx |       131434 |       131434 |       131434 |       131434 |
bpred_2lev.jr_non_ras_hits.PP        xxxxxxxxxxxxx |xxxxxxxxxxxxx |xxxxxxxxxxxxx |            0 |            0 |            0 |            0 |xxxxxxxxxxxxx |xxxxxxxxxxxxx |xxxxxxxxxxxxx |            0 |            0 |            0 |            0 |xxxxxxxxxxxxx |xxxxxxxxxxxxx |xxxxxxxxxxxxx |            0 |            0 |            0 |            0 |xxxxxxxxxxxxx |xxxxxxxxxxxxx |xxxxxxxxxxxxx |            0 |            0 |            0 |            0 |xxxxxxxxxxxxx |xxxxxxxxxxxxx |xxxxxxxxxxxxx |            0 |            0 |            0 |            0 |
bpred_2lev.jr_non_ras_seen.PP        xxxxxxxxxxxxx |xxxxxxxxxxxxx |xxxxxxxxxxxxx |            0 |            0 |            0 |            0 |xxxxxxxxxxxxx |xxxxxxxxxxxxx |xxxxxxxxxxxxx |            0 |            0 |            0 |            0 |xxxxxxxxxxxxx |xxxxxxxxxxxxx |xxxxxxxxxxxxx |            0 |            0 |            0 |            0 |xxxxxxxxxxxxx |xxxxxxxxxxxxx |xxxxxxxxxxxxx |            0 |            0 |            0 |            0 |xxxxxxxxxxxxx |xxxxxxxxxxxxx |xxxxxxxxxxxxx |            0 |            0 |            0 |            0 |
bpred_2lev.bpred_addr_rate           xxxxxxxxxxxxx |xxxxxxxxxxxxx |xxxxxxxxxxxxx |       0.7541 |       0.7921 |       0.8140 |       0.8235 |xxxxxxxxxxxxx |xxxxxxxxxxxxx |xxxxxxxxxxxxx |       0.7428 |       0.7666 |       0.7850 |       0.7930 |xxxxxxxxxxxxx |xxxxxxxxxxxxx |xxxxxxxxxxxxx |       0.7437 |       0.7559 |       0.7668 |       0.7703 |xxxxxxxxxxxxx |xxxxxxxxxxxxx |xxxxxxxxxxxxx |       0.7463 |       0.7539 |       0.7607 |       0.7616 |xxxxxxxxxxxxx |xxxxxxxxxxxxx |xxxxxxxxxxxxx |       0.7491 |       0.7562 |       0.7622 |       0.7620 |
bpred_2lev.bpred_dir_rate            xxxxxxxxxxxxx |xxxxxxxxxxxxx |xxxxxxxxxxxxx |       0.7541 |       0.7921 |       0.8140 |       0.8235 |xxxxxxxxxxxxx |xxxxxxxxxxxxx |xxxxxxxxxxxxx |       0.7428 |       0.7666 |       0.7850 |       0.7930 |xxxxxxxxxxxxx |xxxxxxxxxxxxx |xxxxxxxxxxxxx |       0.7437 |       0.7559 |       0.7668 |       0.7703 |xxxxxxxxxxxxx |xxxxxxxxxxxxx |xxxxxxxxxxxxx |       0.7463 |       0.7539 |       0.7607 |       0.7616 |xxxxxxxxxxxxx |xxxxxxxxxxxxx |xxxxxxxxxxxxx |       0.7491 |       0.7562 |       0.7622 |       0.7620 |
bpred_2lev.bpred_jr_rate             xxxxxxxxxxxxx |xxxxxxxxxxxxx |xxxxxxxxxxxxx |       0.9999 |       0.9999 |       0.9999 |       0.9999 |xxxxxxxxxxxxx |xxxxxxxxxxxxx |xxxxxxxxxxxxx |       0.9999 |       0.9999 |       0.9999 |       0.9999 |xxxxxxxxxxxxx |xxxxxxxxxxxxx |xxxxxxxxxxxxx |       1.0000 |       1.0000 |       1.0000 |       1.0000 |xxxxxxxxxxxxx |xxxxxxxxxxxxx |xxxxxxxxxxxxx |       1.0000 |       1.0000 |       1.0000 |       1.0000 |xxxxxxxxxxxxx |xxxxxxxxxxxxx |xxxxxxxxxxxxx |       1.0000 |       1.0000 |       1.0000 |       1.0000 |
bpred_2lev.bpred_jr_non_ras_rate.PP  xxxxxxxxxxxxx |xxxxxxxxxxxxx |xxxxxxxxxxxxx |      <error: |      <error: |      <error: |      <error: |xxxxxxxxxxxxx |xxxxxxxxxxxxx |xxxxxxxxxxxxx |      <error: |      <error: |      <error: |      <error: |xxxxxxxxxxxxx |xxxxxxxxxxxxx |xxxxxxxxxxxxx |      <error: |      <error: |      <error: |      <error: |xxxxxxxxxxxxx |xxxxxxxxxxxxx |xxxxxxxxxxxxx |      <error: |      <error: |      <error: |      <error: |xxxxxxxxxxxxx |xxxxxxxxxxxxx |xxxxxxxxxxxxx |      <error: |      <error: |      <error: |      <error: |
bpred_2lev.retstack_pushes           xxxxxxxxxxxxx |xxxxxxxxxxxxx |xxxxxxxxxxxxx |         8556 |         8556 |         8556 |         8556 |xxxxxxxxxxxxx |xxxxxxxxxxxxx |xxxxxxxxxxxxx |        16748 |        16748 |        16748 |        16748 |xxxxxxxxxxxxx |xxxxxxxxxxxxx |xxxxxxxxxxxxx |        33132 |        33132 |        33132 |        33132 |xxxxxxxxxxxxx |xxxxxxxxxxxxx |xxxxxxxxxxxxx |        65900 |        65900 |        65900 |        65900 |xxxxxxxxxxxxx |xxxxxxxxxxxxx |xxxxxxxxxxxxx |       131436 |       131436 |       131436 |       131436 |
bpred_2lev.retstack_pops             xxxxxxxxxxxxx |xxxxxxxxxxxxx |xxxxxxxxxxxxx |         8554 |         8554 |         8554 |         8554 |xxxxxxxxxxxxx |xxxxxxxxxxxxx |xxxxxxxxxxxxx |        16746 |        16746 |        16746 |        16746 |xxxxxxxxxxxxx |xxxxxxxxxxxxx |xxxxxxxxxxxxx |        33130 |        33130 |        33130 |        33130 |xxxxxxxxxxxxx |xxxxxxxxxxxxx |xxxxxxxxxxxxx |        65898 |        65898 |        65898 |        65898 |xxxxxxxxxxxxx |xxxxxxxxxxxxx |xxxxxxxxxxxxx |       131434 |       131434 |       131434 |       131434 |
bpred_2lev.used_ras.PP               xxxxxxxxxxxxx |xxxxxxxxxxxxx |xxxxxxxxxxxxx |         8554 |         8554 |         8554 |         8554 |xxxxxxxxxxxxx |xxxxxxxxxxxxx |xxxxxxxxxxxxx |        16746 |        16746 |        16746 |        16746 |xxxxxxxxxxxxx |xxxxxxxxxxxxx |xxxxxxxxxxxxx |        33130 |        33130 |        33130 |        33130 |xxxxxxxxxxxxx |xxxxxxxxxxxxx |xxxxxxxxxxxxx |        65898 |        65898 |        65898 |        65898 |xxxxxxxxxxxxx |xxxxxxxxxxxxx |xxxxxxxxxxxxx |       131434 |       131434 |       131434 |       131434 |
bpred_2lev.ras_hits.PP               xxxxxxxxxxxxx |xxxxxxxxxxxxx |xxxxxxxxxxxxx |         8553 |         8553 |         8553 |         8553 |xxxxxxxxxxxxx |xxxxxxxxxxxxx |xxxxxxxxxxxxx |        16745 |        16745 |        16745 |        16745 |xxxxxxxxxxxxx |xxxxxxxxxxxxx |xxxxxxxxxxxxx |        33129 |        33129 |        33129 |        33129 |xxxxxxxxxxxxx |xxxxxxxxxxxxx |xxxxxxxxxxxxx |        65897 |        65897 |        65897 |        65897 |xxxxxxxxxxxxx |xxxxxxxxxxxxx |xxxxxxxxxxxxx |       131433 |       131433 |       131433 |       131433 |
bpred_2lev.ras_rate.PP               xxxxxxxxxxxxx |xxxxxxxxxxxxx |xxxxxxxxxxxxx |       0.9999 |       0.9999 |       0.9999 |       0.9999 |xxxxxxxxxxxxx |xxxxxxxxxxxxx |xxxxxxxxxxxxx |       0.9999 |       0.9999 |       0.9999 |       0.9999 |xxxxxxxxxxxxx |xxxxxxxxxxxxx |xxxxxxxxxxxxx |       1.0000 |       1.0000 |       1.0000 |       1.0000 |xxxxxxxxxxxxx |xxxxxxxxxxxxx |xxxxxxxxxxxxx |       1.0000 |       1.0000 |       1.0000 |       1.0000 |xxxxxxxxxxxxx |xxxxxxxxxxxxx |xxxxxxxxxxxxx |       1.0000 |       1.0000 |       1.0000 |       1.0000 |

Command list: 
	sslittle-na-sstrix-gcc -Wall -O3 -funroll-loops -finline-functions  -DRANDOM_SIZE=4096 -DSEED=0 -DSORT=on2_bubblesort on2_bubblesort1198685410.c simpleMain.c -o on2_bubblesort1376887332
	sim-cache -cache:dl1 dl1:256:32:1:l -cache:dl2 dl2:131072:32:1:l -cache:il1 il1:256:32:1:l -cache:il2 dl2 on2_bubblesort1376887332
	sim-cache -cache:dl1 dl1:256:32:1:l -cache:dl2 dl2:65536:32:1:l -cache:il1 il1:256:32:1:l -cache:il2 dl2 on2_bubblesort1376887332
	sim-cache -cache:dl1 dl1:1:32:256:l -cache:dl2 dl2:1:32:131072:l -cache:il1 il1:1:32:256:l -cache:il2 dl2 on2_bubblesort1376887332
	sim-cache -cache:dl1 dl1:1:32:256:l -cache:dl2 dl2:1:32:65536:l -cache:il1 il1:1:32:256:l -cache:il2 dl2 on2_bubblesort1376887332
	sim-bpred -bpred bimod -bpred:bimod 512 on2_bubblesort1376887332
	sim-bpred -bpred bimod -bpred:bimod 1024 on2_bubblesort1376887332
	sim-bpred -bpred bimod -bpred:bimod 2048 on2_bubblesort1376887332
	sim-bpred -bpred 2lev -bpred:2lev 1 512 10 1 on2_bubblesort1376887332
	sim-bpred -bpred 2lev -bpred:2lev 1 1024 10 1 on2_bubblesort1376887332
	sim-bpred -bpred 2lev -bpred:2lev 1 2048 10 1 on2_bubblesort1376887332
	sim-bpred -bpred 2lev -bpred:2lev 1 4096 10 1 on2_bubblesort1376887332
	sslittle-na-sstrix-gcc -Wall -O3 -funroll-loops -finline-functions  -DRANDOM_SIZE=8192 -DSEED=0 -DSORT=on2_bubblesort on2_bubblesort1198685410.c simpleMain.c -o on2_bubblesort1376887332
	sim-cache -cache:dl1 dl1:256:32:1:l -cache:dl2 dl2:131072:32:1:l -cache:il1 il1:256:32:1:l -cache:il2 dl2 on2_bubblesort1376887332
	sim-cache -cache:dl1 dl1:256:32:1:l -cache:dl2 dl2:65536:32:1:l -cache:il1 il1:256:32:1:l -cache:il2 dl2 on2_bubblesort1376887332
	sim-cache -cache:dl1 dl1:1:32:256:l -cache:dl2 dl2:1:32:131072:l -cache:il1 il1:1:32:256:l -cache:il2 dl2 on2_bubblesort1376887332
	sim-cache -cache:dl1 dl1:1:32:256:l -cache:dl2 dl2:1:32:65536:l -cache:il1 il1:1:32:256:l -cache:il2 dl2 on2_bubblesort1376887332
	sim-bpred -bpred bimod -bpred:bimod 512 on2_bubblesort1376887332
	sim-bpred -bpred bimod -bpred:bimod 1024 on2_bubblesort1376887332
	sim-bpred -bpred bimod -bpred:bimod 2048 on2_bubblesort1376887332
	sim-bpred -bpred 2lev -bpred:2lev 1 512 10 1 on2_bubblesort1376887332
	sim-bpred -bpred 2lev -bpred:2lev 1 1024 10 1 on2_bubblesort1376887332
	sim-bpred -bpred 2lev -bpred:2lev 1 2048 10 1 on2_bubblesort1376887332
	sim-bpred -bpred 2lev -bpred:2lev 1 4096 10 1 on2_bubblesort1376887332
	sslittle-na-sstrix-gcc -Wall -O3 -funroll-loops -finline-functions  -DRANDOM_SIZE=16384 -DSEED=0 -DSORT=on2_bubblesort on2_bubblesort1198685410.c simpleMain.c -o on2_bubblesort1376887332
	sim-cache -cache:dl1 dl1:256:32:1:l -cache:dl2 dl2:131072:32:1:l -cache:il1 il1:256:32:1:l -cache:il2 dl2 on2_bubblesort1376887332
	sim-cache -cache:dl1 dl1:256:32:1:l -cache:dl2 dl2:65536:32:1:l -cache:il1 il1:256:32:1:l -cache:il2 dl2 on2_bubblesort1376887332
	sim-cache -cache:dl1 dl1:1:32:256:l -cache:dl2 dl2:1:32:131072:l -cache:il1 il1:1:32:256:l -cache:il2 dl2 on2_bubblesort1376887332
	sim-cache -cache:dl1 dl1:1:32:256:l -cache:dl2 dl2:1:32:65536:l -cache:il1 il1:1:32:256:l -cache:il2 dl2 on2_bubblesort1376887332
	sim-bpred -bpred bimod -bpred:bimod 512 on2_bubblesort1376887332
	sim-bpred -bpred bimod -bpred:bimod 1024 on2_bubblesort1376887332
	sim-bpred -bpred bimod -bpred:bimod 2048 on2_bubblesort1376887332
	sim-bpred -bpred 2lev -bpred:2lev 1 512 10 1 on2_bubblesort1376887332
	sim-bpred -bpred 2lev -bpred:2lev 1 1024 10 1 on2_bubblesort1376887332
	sim-bpred -bpred 2lev -bpred:2lev 1 2048 10 1 on2_bubblesort1376887332
	sim-bpred -bpred 2lev -bpred:2lev 1 4096 10 1 on2_bubblesort1376887332
	sslittle-na-sstrix-gcc -Wall -O3 -funroll-loops -finline-functions  -DRANDOM_SIZE=32768 -DSEED=0 -DSORT=on2_bubblesort on2_bubblesort1198685410.c simpleMain.c -o on2_bubblesort1376887332
	sim-cache -cache:dl1 dl1:256:32:1:l -cache:dl2 dl2:131072:32:1:l -cache:il1 il1:256:32:1:l -cache:il2 dl2 on2_bubblesort1376887332
	sim-cache -cache:dl1 dl1:256:32:1:l -cache:dl2 dl2:65536:32:1:l -cache:il1 il1:256:32:1:l -cache:il2 dl2 on2_bubblesort1376887332
	sim-cache -cache:dl1 dl1:1:32:256:l -cache:dl2 dl2:1:32:131072:l -cache:il1 il1:1:32:256:l -cache:il2 dl2 on2_bubblesort1376887332
	sim-cache -cache:dl1 dl1:1:32:256:l -cache:dl2 dl2:1:32:65536:l -cache:il1 il1:1:32:256:l -cache:il2 dl2 on2_bubblesort1376887332
	sim-bpred -bpred bimod -bpred:bimod 512 on2_bubblesort1376887332
	sim-bpred -bpred bimod -bpred:bimod 1024 on2_bubblesort1376887332
	sim-bpred -bpred bimod -bpred:bimod 2048 on2_bubblesort1376887332
	sim-bpred -bpred 2lev -bpred:2lev 1 512 10 1 on2_bubblesort1376887332
	sim-bpred -bpred 2lev -bpred:2lev 1 1024 10 1 on2_bubblesort1376887332
	sim-bpred -bpred 2lev -bpred:2lev 1 2048 10 1 on2_bubblesort1376887332
	sim-bpred -bpred 2lev -bpred:2lev 1 4096 10 1 on2_bubblesort1376887332
	sslittle-na-sstrix-gcc -Wall -O3 -funroll-loops -finline-functions  -DRANDOM_SIZE=65536 -DSEED=0 -DSORT=on2_bubblesort on2_bubblesort1198685410.c simpleMain.c -o on2_bubblesort1376887332
	sim-cache -cache:dl1 dl1:256:32:1:l -cache:dl2 dl2:131072:32:1:l -cache:il1 il1:256:32:1:l -cache:il2 dl2 on2_bubblesort1376887332
	sim-cache -cache:dl1 dl1:256:32:1:l -cache:dl2 dl2:65536:32:1:l -cache:il1 il1:256:32:1:l -cache:il2 dl2 on2_bubblesort1376887332
	sim-cache -cache:dl1 dl1:1:32:256:l -cache:dl2 dl2:1:32:131072:l -cache:il1 il1:1:32:256:l -cache:il2 dl2 on2_bubblesort1376887332
	sim-cache -cache:dl1 dl1:1:32:256:l -cache:dl2 dl2:1:32:65536:l -cache:il1 il1:1:32:256:l -cache:il2 dl2 on2_bubblesort1376887332
	sim-bpred -bpred bimod -bpred:bimod 512 on2_bubblesort1376887332
	sim-bpred -bpred bimod -bpred:bimod 1024 on2_bubblesort1376887332
	sim-bpred -bpred bimod -bpred:bimod 2048 on2_bubblesort1376887332
	sim-bpred -bpred 2lev -bpred:2lev 1 512 10 1 on2_bubblesort1376887332
	sim-bpred -bpred 2lev -bpred:2lev 1 1024 10 1 on2_bubblesort1376887332
	sim-bpred -bpred 2lev -bpred:2lev 1 2048 10 1 on2_bubblesort1376887332
	sim-bpred -bpred 2lev -bpred:2lev 1 4096 10 1 on2_bubblesort1376887332
