Wed Jun 16 12:33:43 2004
Run as: "./simple -c init -M 32768 on2_bubblesort2"
-------------------------------------------------------------------------------------------------
sim-cache                                     4096 |         4096 |         4096 |         4096 |         8192 |         8192 |         8192 |         8192 |        16384 |        16384 |        16384 |        16384 |        32768 |        32768 |        32768 |        32768 |
-cache:dl1 dl1:256:32:1:l -cache:dl2 dl2:131072:32:1:l -cache:il1 il1:256:32:1:l -cache:il2 dl2
-cache:dl1 dl1:256:32:1:l -cache:dl2 dl2:65536:32:1:l -cache:il1 il1:256:32:1:l -cache:il2 dl2
-cache:dl1 dl1:1:32:256:l -cache:dl2 dl2:1:32:131072:l -cache:il1 il1:1:32:256:l -cache:il2 dl2
-cache:dl1 dl1:1:32:256:l -cache:dl2 dl2:1:32:65536:l -cache:il1 il1:1:32:256:l -cache:il2 dl2
-------------------------------------------------------------------------------------------------
sim_num_insn                              67247172 |     67247172 |     67247172 |     67247172 |    269073765 |    269073765 |    269073765 |    269073765 |   1072013383 |   1072013383 |   1072013383 |   1072013383 |   4291425442 |   4291425442 |   4291425442 |   4291425442 |
sim_num_refs                              25238266 |     25238266 |     25238266 |     25238266 |    101051784 |    101051784 |    101051784 |    101051784 |    401439852 |    401439852 |    401439852 |    401439852 |   1608137038 |   1608137038 |   1608137038 |   1608137038 |
sim_elapsed_time                                53 |           70 |          105 |           89 |          268 |          258 |          258 |          246 |          967 |         1001 |          976 |          952 |        11451 |        11659 |        11442 |        11322 |
sim_inst_rate                         1268814.5660 |  960673.8857 |  640449.2571 |  755586.2022 | 1004006.5858 | 1042921.5698 | 1042921.5698 | 1093795.7927 | 1108597.0869 | 1070942.4406 | 1098374.3678 | 1126064.4779 |  374764.2513 |  368078.3465 |  375059.0318 |  379034.2203 |
il1.accesses                              67247172 |     67247172 |     67247172 |     67247172 |    269073765 |    269073765 |    269073765 |    269073765 |   1072013383 |   1072013383 |   1072013383 |   1072013383 |   4291425442 |   4291425442 |   4291425442 |   4291425442 |
il1.hits                                  67246795 |     67246795 |     67246847 |     67246847 |    269073387 |    269073387 |    269073439 |    269073439 |   1072012997 |   1072012997 |   1072013056 |   1072013056 |   4291425055 |   4291425055 |   4291425114 |   4291425114 |
il1.misses                                     377 |          377 |          325 |          325 |          378 |          378 |          326 |          326 |          386 |          386 |          327 |          327 |          387 |          387 |          328 |          328 |
il1.replacements                               187 |          187 |           69 |           69 |          187 |          187 |           70 |           70 |          194 |          194 |           71 |           71 |          194 |          194 |           72 |           72 |
il1.writebacks                                   0 |            0 |            0 |            0 |            0 |            0 |            0 |            0 |            0 |            0 |            0 |            0 |            0 |            0 |            0 |            0 |
il1.invalidations                                0 |            0 |            0 |            0 |            0 |            0 |            0 |            0 |            0 |            0 |            0 |            0 |            0 |            0 |            0 |            0 |
il1.miss_rate                               0.0000 |       0.0000 |       0.0000 |       0.0000 |       0.0000 |       0.0000 |       0.0000 |       0.0000 |       0.0000 |       0.0000 |       0.0000 |       0.0000 |       0.0000 |       0.0000 |       0.0000 |       0.0000 |
il1.repl_rate                               0.0000 |       0.0000 |       0.0000 |       0.0000 |       0.0000 |       0.0000 |       0.0000 |       0.0000 |       0.0000 |       0.0000 |       0.0000 |       0.0000 |       0.0000 |       0.0000 |       0.0000 |       0.0000 |
il1.wb_rate                                 0.0000 |       0.0000 |       0.0000 |       0.0000 |       0.0000 |       0.0000 |       0.0000 |       0.0000 |       0.0000 |       0.0000 |       0.0000 |       0.0000 |       0.0000 |       0.0000 |       0.0000 |       0.0000 |
il1.inv_rate                                0.0000 |       0.0000 |       0.0000 |       0.0000 |       0.0000 |       0.0000 |       0.0000 |       0.0000 |       0.0000 |       0.0000 |       0.0000 |       0.0000 |       0.0000 |       0.0000 |       0.0000 |       0.0000 |
dl1.accesses                              25238336 |     25238336 |     25238336 |     25238336 |    101051854 |    101051854 |    101051854 |    101051854 |    401439922 |    401439922 |    401439922 |    401439922 |   1608137108 |   1608137108 |   1608137108 |   1608137108 |
dl1.hits                                  24710415 |     24710415 |     24450411 |     24450411 |     97376972 |     97376972 |     97116059 |     97116059 |    385177626 |    385177626 |    384917067 |    384917067 |   1541534533 |   1541534533 |   1541274286 |   1541274286 |
dl1.misses                                  527921 |       527921 |       787925 |       787925 |      3674882 |      3674882 |      3935795 |      3935795 |     16262296 |     16262296 |     16522855 |     16522855 |     66602575 |     66602575 |     66862822 |     66862822 |
dl1.replacements                            527665 |       527665 |       787669 |       787669 |      3674626 |      3674626 |      3935539 |      3935539 |     16262040 |     16262040 |     16522599 |     16522599 |     66602319 |     66602319 |     66862566 |     66862566 |
dl1.writebacks                              501406 |       501406 |       755624 |       755624 |      3434350 |      3434350 |      3652176 |      3652176 |     14842676 |     14842676 |     14985289 |     14985289 |     60164859 |     60164859 |     60242724 |     60242724 |
dl1.invalidations                                0 |            0 |            0 |            0 |            0 |            0 |            0 |            0 |            0 |            0 |            0 |            0 |            0 |            0 |            0 |            0 |
dl1.miss_rate                               0.0209 |       0.0209 |       0.0312 |       0.0312 |       0.0364 |       0.0364 |       0.0389 |       0.0389 |       0.0405 |       0.0405 |       0.0412 |       0.0412 |       0.0414 |       0.0414 |       0.0416 |       0.0416 |
dl1.repl_rate                               0.0209 |       0.0209 |       0.0312 |       0.0312 |       0.0364 |       0.0364 |       0.0389 |       0.0389 |       0.0405 |       0.0405 |       0.0412 |       0.0412 |       0.0414 |       0.0414 |       0.0416 |       0.0416 |
dl1.wb_rate                                 0.0199 |       0.0199 |       0.0299 |       0.0299 |       0.0340 |       0.0340 |       0.0361 |       0.0361 |       0.0370 |       0.0370 |       0.0373 |       0.0373 |       0.0374 |       0.0374 |       0.0375 |       0.0375 |
dl1.inv_rate                                0.0000 |       0.0000 |       0.0000 |       0.0000 |       0.0000 |       0.0000 |       0.0000 |       0.0000 |       0.0000 |       0.0000 |       0.0000 |       0.0000 |       0.0000 |       0.0000 |       0.0000 |       0.0000 |
dl2.accesses                               1029704 |      1029704 |      1543874 |      1543874 |      7109610 |      7109610 |      7588297 |      7588297 |     31105358 |     31105358 |     31508471 |     31508471 |    126767821 |    126767821 |    127105874 |    127105874 |
dl2.hits                                   1028427 |      1028427 |      1542623 |      1542623 |      7107820 |      7107820 |      7586533 |      7586533 |     31102540 |     31102540 |     31505681 |     31505681 |    126762953 |    126762953 |    127101035 |    127101035 |
dl2.misses                                    1277 |         1277 |         1251 |         1251 |         1790 |         1790 |         1764 |         1764 |         2818 |         2818 |         2790 |         2790 |         4868 |         4868 |         4839 |         4839 |
dl2.replacements                               171 |          171 |            0 |            0 |          172 |          172 |            0 |            0 |          172 |          172 |            0 |            0 |          174 |          174 |            0 |            0 |
dl2.writebacks                                  29 |           29 |            0 |            0 |           27 |           27 |            0 |            0 |           29 |           29 |            0 |            0 |           30 |           30 |            0 |            0 |
dl2.invalidations                                0 |            0 |            0 |            0 |            0 |            0 |            0 |            0 |            0 |            0 |            0 |            0 |            0 |            0 |            0 |            0 |
dl2.miss_rate                               0.0012 |       0.0012 |       0.0008 |       0.0008 |       0.0003 |       0.0003 |       0.0002 |       0.0002 |       0.0001 |       0.0001 |       0.0001 |       0.0001 |       0.0000 |       0.0000 |       0.0000 |       0.0000 |
dl2.repl_rate                               0.0002 |       0.0002 |       0.0000 |       0.0000 |       0.0000 |       0.0000 |       0.0000 |       0.0000 |       0.0000 |       0.0000 |       0.0000 |       0.0000 |       0.0000 |       0.0000 |       0.0000 |       0.0000 |
dl2.wb_rate                                 0.0000 |       0.0000 |       0.0000 |       0.0000 |       0.0000 |       0.0000 |       0.0000 |       0.0000 |       0.0000 |       0.0000 |       0.0000 |       0.0000 |       0.0000 |       0.0000 |       0.0000 |       0.0000 |
dl2.inv_rate                                0.0000 |       0.0000 |       0.0000 |       0.0000 |       0.0000 |       0.0000 |       0.0000 |       0.0000 |       0.0000 |       0.0000 |       0.0000 |       0.0000 |       0.0000 |       0.0000 |       0.0000 |       0.0000 |
itlb.accesses                             67247172 |     67247172 |     67247172 |     67247172 |    269073765 |    269073765 |    269073765 |    269073765 |   1072013383 |   1072013383 |   1072013383 |   1072013383 |   4291425442 |   4291425442 |   4291425442 |   4291425442 |
itlb.hits                                 67247165 |     67247165 |     67247165 |     67247165 |    269073758 |    269073758 |    269073758 |    269073758 |   1072013376 |   1072013376 |   1072013376 |   1072013376 |   4291425435 |   4291425435 |   4291425435 |   4291425435 |
itlb.misses                                      7 |            7 |            7 |            7 |            7 |            7 |            7 |            7 |            7 |            7 |            7 |            7 |            7 |            7 |            7 |            7 |
itlb.replacements                                0 |            0 |            0 |            0 |            0 |            0 |            0 |            0 |            0 |            0 |            0 |            0 |            0 |            0 |            0 |            0 |
itlb.writebacks                                  0 |            0 |            0 |            0 |            0 |            0 |            0 |            0 |            0 |            0 |            0 |            0 |            0 |            0 |            0 |            0 |
itlb.invalidations                               0 |            0 |            0 |            0 |            0 |            0 |            0 |            0 |            0 |            0 |            0 |            0 |            0 |            0 |            0 |            0 |
itlb.miss_rate                              0.0000 |       0.0000 |       0.0000 |       0.0000 |       0.0000 |       0.0000 |       0.0000 |       0.0000 |       0.0000 |       0.0000 |       0.0000 |       0.0000 |       0.0000 |       0.0000 |       0.0000 |       0.0000 |
itlb.repl_rate                              0.0000 |       0.0000 |       0.0000 |       0.0000 |       0.0000 |       0.0000 |       0.0000 |       0.0000 |       0.0000 |       0.0000 |       0.0000 |       0.0000 |       0.0000 |       0.0000 |       0.0000 |       0.0000 |
itlb.wb_rate                                0.0000 |       0.0000 |       0.0000 |       0.0000 |       0.0000 |       0.0000 |       0.0000 |       0.0000 |       0.0000 |       0.0000 |       0.0000 |       0.0000 |       0.0000 |       0.0000 |       0.0000 |       0.0000 |
itlb.inv_rate                               0.0000 |       0.0000 |       0.0000 |       0.0000 |       0.0000 |       0.0000 |       0.0000 |       0.0000 |       0.0000 |       0.0000 |       0.0000 |       0.0000 |       0.0000 |       0.0000 |       0.0000 |       0.0000 |
dtlb.accesses                             25238336 |     25238336 |     25238336 |     25238336 |    101051854 |    101051854 |    101051854 |    101051854 |    401439922 |    401439922 |    401439922 |    401439922 |   1608137108 |   1608137108 |   1608137108 |   1608137108 |
dtlb.hits                                 25238326 |     25238326 |     25238326 |     25238326 |    101051840 |    101051840 |    101051840 |    101051840 |    401439900 |    401439900 |    401439900 |    401439900 |   1608137070 |   1608137070 |   1608137070 |   1608137070 |
dtlb.misses                                     10 |           10 |           10 |           10 |           14 |           14 |           14 |           14 |           22 |           22 |           22 |           22 |           38 |           38 |           38 |           38 |
dtlb.replacements                                0 |            0 |            0 |            0 |            0 |            0 |            0 |            0 |            0 |            0 |            0 |            0 |            0 |            0 |            0 |            0 |
dtlb.writebacks                                  0 |            0 |            0 |            0 |            0 |            0 |            0 |            0 |            0 |            0 |            0 |            0 |            0 |            0 |            0 |            0 |
dtlb.invalidations                               0 |            0 |            0 |            0 |            0 |            0 |            0 |            0 |            0 |            0 |            0 |            0 |            0 |            0 |            0 |            0 |
dtlb.miss_rate                              0.0000 |       0.0000 |       0.0000 |       0.0000 |       0.0000 |       0.0000 |       0.0000 |       0.0000 |       0.0000 |       0.0000 |       0.0000 |       0.0000 |       0.0000 |       0.0000 |       0.0000 |       0.0000 |
dtlb.repl_rate                              0.0000 |       0.0000 |       0.0000 |       0.0000 |       0.0000 |       0.0000 |       0.0000 |       0.0000 |       0.0000 |       0.0000 |       0.0000 |       0.0000 |       0.0000 |       0.0000 |       0.0000 |       0.0000 |
dtlb.wb_rate                                0.0000 |       0.0000 |       0.0000 |       0.0000 |       0.0000 |       0.0000 |       0.0000 |       0.0000 |       0.0000 |       0.0000 |       0.0000 |       0.0000 |       0.0000 |       0.0000 |       0.0000 |       0.0000 |
dtlb.inv_rate                               0.0000 |       0.0000 |       0.0000 |       0.0000 |       0.0000 |       0.0000 |       0.0000 |       0.0000 |       0.0000 |       0.0000 |       0.0000 |       0.0000 |       0.0000 |       0.0000 |       0.0000 |       0.0000 |
ld_text_base                            0x00400000 |   0x00400000 |   0x00400000 |   0x00400000 |   0x00400000 |   0x00400000 |   0x00400000 |   0x00400000 |   0x00400000 |   0x00400000 |   0x00400000 |   0x00400000 |   0x00400000 |   0x00400000 |   0x00400000 |   0x00400000 |
ld_text_size                                 26224 |        26224 |        26224 |        26224 |        26256 |        26256 |        26256 |        26256 |        26272 |        26272 |        26272 |        26272 |        26304 |        26304 |        26304 |        26304 |
ld_data_base                            0x10000000 |   0x10000000 |   0x10000000 |   0x10000000 |   0x10000000 |   0x10000000 |   0x10000000 |   0x10000000 |   0x10000000 |   0x10000000 |   0x10000000 |   0x10000000 |   0x10000000 |   0x10000000 |   0x10000000 |   0x10000000 |
ld_data_size                                  4096 |         4096 |         4096 |         4096 |         4096 |         4096 |         4096 |         4096 |         4096 |         4096 |         4096 |         4096 |         4096 |         4096 |         4096 |         4096 |
ld_stack_base                           0x7fffc000 |   0x7fffc000 |   0x7fffc000 |   0x7fffc000 |   0x7fffc000 |   0x7fffc000 |   0x7fffc000 |   0x7fffc000 |   0x7fffc000 |   0x7fffc000 |   0x7fffc000 |   0x7fffc000 |   0x7fffc000 |   0x7fffc000 |   0x7fffc000 |   0x7fffc000 |
ld_stack_size                                16384 |        16384 |        16384 |        16384 |        16384 |        16384 |        16384 |        16384 |        16384 |        16384 |        16384 |        16384 |        16384 |        16384 |        16384 |        16384 |
ld_prog_entry                           0x00400140 |   0x00400140 |   0x00400140 |   0x00400140 |   0x00400140 |   0x00400140 |   0x00400140 |   0x00400140 |   0x00400140 |   0x00400140 |   0x00400140 |   0x00400140 |   0x00400140 |   0x00400140 |   0x00400140 |   0x00400140 |
ld_environ_base                         0x7fff8000 |   0x7fff8000 |   0x7fff8000 |   0x7fff8000 |   0x7fff8000 |   0x7fff8000 |   0x7fff8000 |   0x7fff8000 |   0x7fff8000 |   0x7fff8000 |   0x7fff8000 |   0x7fff8000 |   0x7fff8000 |   0x7fff8000 |   0x7fff8000 |   0x7fff8000 |
ld_target_big_endian                             0 |            0 |            0 |            0 |            0 |            0 |            0 |            0 |            0 |            0 |            0 |            0 |            0 |            0 |            0 |            0 |
mem.page_count                                  17 |           17 |           17 |           17 |           21 |           21 |           21 |           21 |           29 |           29 |           29 |           29 |           45 |           45 |           45 |           45 |
mem.page_mem                                   68k |          68k |          68k |          68k |          84k |          84k |          84k |          84k |         116k |         116k |         116k |         116k |         180k |         180k |         180k |         180k |
mem.ptab_misses                                 17 |           17 |           17 |           17 |           21 |           21 |           21 |           21 |           29 |           29 |           29 |           29 |           45 |           45 |           45 |           45 |
mem.ptab_accesses                        319627924 |    319627924 |    319627924 |    319627924 |   1278561524 |   1278561524 |   1278561524 |   1278561524 |   5091096228 |   5091096228 |   5091096228 |   5091096228 |  20382139028 |  20382139028 |  20382139028 |  20382139028 |
mem.ptab_miss_rate                          0.0000 |       0.0000 |       0.0000 |       0.0000 |       0.0000 |       0.0000 |       0.0000 |       0.0000 |       0.0000 |       0.0000 |       0.0000 |       0.0000 |       0.0000 |       0.0000 |       0.0000 |       0.0000 |
-------------------------------------------------------------------------------------------------
sim-bpred                                     4096 |         4096 |         4096 |         4096 |         4096 |         4096 |         4096 |         8192 |         8192 |         8192 |         8192 |         8192 |         8192 |         8192 |        16384 |        16384 |        16384 |        16384 |        16384 |        16384 |        16384 |        32768 |        32768 |        32768 |        32768 |        32768 |        32768 |        32768 |
-bpred bimod -bpred:bimod 512
-bpred bimod -bpred:bimod 1024
-bpred bimod -bpred:bimod 2048
-bpred 2lev -bpred:2lev 1 512 10 1
-bpred 2lev -bpred:2lev 1 1024 10 1
-bpred 2lev -bpred:2lev 1 2048 10 1
-bpred 2lev -bpred:2lev 1 4096 10 1
-------------------------------------------------------------------------------------------------
sim_num_insn                              67247172 |     67247172 |     67247172 |     67247172 |     67247172 |     67247172 |     67247172 |    269073765 |    269073765 |    269073765 |    269073765 |    269073765 |    269073765 |    269073765 |   1072013383 |   1072013383 |   1072013383 |   1072013383 |   1072013383 |   1072013383 |   1072013383 |   4291425442 |   4291425442 |   4291425442 |   4291425442 |   4291425442 |   4291425442 |   4291425442 |
sim_num_refs                              25238266 |     25238266 |     25238266 |     25238266 |     25238266 |     25238266 |     25238266 |    101051784 |    101051784 |    101051784 |    101051784 |    101051784 |    101051784 |    101051784 |    401439852 |    401439852 |    401439852 |    401439852 |    401439852 |    401439852 |    401439852 |   1608137038 |   1608137038 |   1608137038 |   1608137038 |   1608137038 |   1608137038 |   1608137038 |
sim_elapsed_time                                33 |           31 |           39 |           36 |           34 |           34 |           35 |           96 |           93 |           95 |           97 |           98 |           98 |           97 |          382 |          383 |          410 |          405 |          418 |          384 |         1034 |         4532 |         4150 |         3586 |         1048 |         1051 |         1168 |         1044 |
sim_inst_rate                         2037793.0909 | 2169263.6129 | 1724286.4615 | 1867977.0000 | 1977858.0000 | 1977858.0000 | 1921347.7714 | 2802851.7188 | 2893266.2903 | 2832355.4211 | 2773956.3402 | 2745650.6633 | 2745650.6633 | 2773956.3402 | 2806317.7565 | 2798990.5561 | 2614666.7878 | 2646946.6247 | 2564625.3182 | 2791701.5182 | 1036763.4265 |  946916.4700 | 1034078.4198 | 1196716.5204 | 4094871.6050 | 4083183.1037 | 3674165.6182 | 4110560.7682 |
sim_num_branches                          10505932 |     10505932 |     10505932 |     10505932 |     10505932 |     10505932 |     10505932 |     41980887 |     41980887 |     41980887 |     41980887 |     41980887 |     41980887 |     41980887 |    167839696 |    167839696 |    167839696 |    167839696 |    167839696 |    167839696 |    167839696 |    671218496 |    671218496 |    671218496 |    671218496 |    671218496 |    671218496 |    671218496 |
sim_IPB                                     6.4009 |       6.4009 |       6.4009 |       6.4009 |       6.4009 |       6.4009 |       6.4009 |       6.4094 |       6.4094 |       6.4094 |       6.4094 |       6.4094 |       6.4094 |       6.4094 |       6.3871 |       6.3871 |       6.3871 |       6.3871 |       6.3871 |       6.3871 |       6.3871 |       6.3935 |       6.3935 |       6.3935 |       6.3935 |       6.3935 |       6.3935 |       6.3935 |
bpred_bimod.lookups                       10505932 |     10505932 |     10505932 |xxxxxxxxxxxxx |xxxxxxxxxxxxx |xxxxxxxxxxxxx |xxxxxxxxxxxxx |     41980887 |     41980887 |     41980887 |xxxxxxxxxxxxx |xxxxxxxxxxxxx |xxxxxxxxxxxxx |xxxxxxxxxxxxx |    167839696 |    167839696 |    167839696 |xxxxxxxxxxxxx |xxxxxxxxxxxxx |xxxxxxxxxxxxx |xxxxxxxxxxxxx |    671218496 |    671218496 |    671218496 |
bpred_bimod.updates                       10505932 |     10505932 |     10505932 |xxxxxxxxxxxxx |xxxxxxxxxxxxx |xxxxxxxxxxxxx |xxxxxxxxxxxxx |     41980887 |     41980887 |     41980887 |xxxxxxxxxxxxx |xxxxxxxxxxxxx |xxxxxxxxxxxxx |xxxxxxxxxxxxx |    167839696 |    167839696 |    167839696 |xxxxxxxxxxxxx |xxxxxxxxxxxxx |xxxxxxxxxxxxx |xxxxxxxxxxxxx |    671218496 |    671218496 |    671218496 |
bpred_bimod.addr_hits                      8080964 |      8080966 |      8080967 |xxxxxxxxxxxxx |xxxxxxxxxxxxx |xxxxxxxxxxxxx |xxxxxxxxxxxxx |     32291791 |     32291792 |     32291793 |xxxxxxxxxxxxx |xxxxxxxxxxxxx |xxxxxxxxxxxxx |xxxxxxxxxxxxx |    129330807 |    129330808 |    129330809 |xxxxxxxxxxxxx |xxxxxxxxxxxxx |xxxxxxxxxxxxx |xxxxxxxxxxxxx |    517897056 |    517897058 |    517897059 |
bpred_bimod.dir_hits                       8081066 |      8081066 |      8081066 |xxxxxxxxxxxxx |xxxxxxxxxxxxx |xxxxxxxxxxxxx |xxxxxxxxxxxxx |     32291894 |     32291893 |     32291892 |xxxxxxxxxxxxx |xxxxxxxxxxxxx |xxxxxxxxxxxxx |xxxxxxxxxxxxx |    129330910 |    129330909 |    129330909 |xxxxxxxxxxxxx |xxxxxxxxxxxxx |xxxxxxxxxxxxx |xxxxxxxxxxxxx |    517897161 |    517897161 |    517897161 |
bpred_bimod.misses                         2424866 |      2424866 |      2424866 |xxxxxxxxxxxxx |xxxxxxxxxxxxx |xxxxxxxxxxxxx |xxxxxxxxxxxxx |      9688993 |      9688994 |      9688995 |xxxxxxxxxxxxx |xxxxxxxxxxxxx |xxxxxxxxxxxxx |xxxxxxxxxxxxx |     38508786 |     38508787 |     38508787 |xxxxxxxxxxxxx |xxxxxxxxxxxxx |xxxxxxxxxxxxx |xxxxxxxxxxxxx |    153321335 |    153321335 |    153321335 |
bpred_bimod.jr_hits                           8553 |         8553 |         8553 |xxxxxxxxxxxxx |xxxxxxxxxxxxx |xxxxxxxxxxxxx |xxxxxxxxxxxxx |        16745 |        16745 |        16745 |xxxxxxxxxxxxx |xxxxxxxxxxxxx |xxxxxxxxxxxxx |xxxxxxxxxxxxx |        33129 |        33129 |        33129 |xxxxxxxxxxxxx |xxxxxxxxxxxxx |xxxxxxxxxxxxx |xxxxxxxxxxxxx |        65897 |        65897 |        65897 |
bpred_bimod.jr_seen                           8554 |         8554 |         8554 |xxxxxxxxxxxxx |xxxxxxxxxxxxx |xxxxxxxxxxxxx |xxxxxxxxxxxxx |        16746 |        16746 |        16746 |xxxxxxxxxxxxx |xxxxxxxxxxxxx |xxxxxxxxxxxxx |xxxxxxxxxxxxx |        33130 |        33130 |        33130 |xxxxxxxxxxxxx |xxxxxxxxxxxxx |xxxxxxxxxxxxx |xxxxxxxxxxxxx |        65898 |        65898 |        65898 |
bpred_bimod.jr_non_ras_hits.PP                   0 |            0 |            0 |xxxxxxxxxxxxx |xxxxxxxxxxxxx |xxxxxxxxxxxxx |xxxxxxxxxxxxx |            0 |            0 |            0 |xxxxxxxxxxxxx |xxxxxxxxxxxxx |xxxxxxxxxxxxx |xxxxxxxxxxxxx |            0 |            0 |            0 |xxxxxxxxxxxxx |xxxxxxxxxxxxx |xxxxxxxxxxxxx |xxxxxxxxxxxxx |            0 |            0 |            0 |
bpred_bimod.jr_non_ras_seen.PP                   0 |            0 |            0 |xxxxxxxxxxxxx |xxxxxxxxxxxxx |xxxxxxxxxxxxx |xxxxxxxxxxxxx |            0 |            0 |            0 |xxxxxxxxxxxxx |xxxxxxxxxxxxx |xxxxxxxxxxxxx |xxxxxxxxxxxxx |            0 |            0 |            0 |xxxxxxxxxxxxx |xxxxxxxxxxxxx |xxxxxxxxxxxxx |xxxxxxxxxxxxx |            0 |            0 |            0 |
bpred_bimod.bpred_addr_rate                 0.7692 |       0.7692 |       0.7692 |xxxxxxxxxxxxx |xxxxxxxxxxxxx |xxxxxxxxxxxxx |xxxxxxxxxxxxx |       0.7692 |       0.7692 |       0.7692 |xxxxxxxxxxxxx |xxxxxxxxxxxxx |xxxxxxxxxxxxx |xxxxxxxxxxxxx |       0.7706 |       0.7706 |       0.7706 |xxxxxxxxxxxxx |xxxxxxxxxxxxx |xxxxxxxxxxxxx |xxxxxxxxxxxxx |       0.7716 |       0.7716 |       0.7716 |
bpred_bimod.bpred_dir_rate                  0.7692 |       0.7692 |       0.7692 |xxxxxxxxxxxxx |xxxxxxxxxxxxx |xxxxxxxxxxxxx |xxxxxxxxxxxxx |       0.7692 |       0.7692 |       0.7692 |xxxxxxxxxxxxx |xxxxxxxxxxxxx |xxxxxxxxxxxxx |xxxxxxxxxxxxx |       0.7706 |       0.7706 |       0.7706 |xxxxxxxxxxxxx |xxxxxxxxxxxxx |xxxxxxxxxxxxx |xxxxxxxxxxxxx |       0.7716 |       0.7716 |       0.7716 |
bpred_bimod.bpred_jr_rate                   0.9999 |       0.9999 |       0.9999 |xxxxxxxxxxxxx |xxxxxxxxxxxxx |xxxxxxxxxxxxx |xxxxxxxxxxxxx |       0.9999 |       0.9999 |       0.9999 |xxxxxxxxxxxxx |xxxxxxxxxxxxx |xxxxxxxxxxxxx |xxxxxxxxxxxxx |       1.0000 |       1.0000 |       1.0000 |xxxxxxxxxxxxx |xxxxxxxxxxxxx |xxxxxxxxxxxxx |xxxxxxxxxxxxx |       1.0000 |       1.0000 |       1.0000 |
bpred_bimod.bpred_jr_non_ras_rate.PP       <error: |      <error: |      <error: |xxxxxxxxxxxxx |xxxxxxxxxxxxx |xxxxxxxxxxxxx |xxxxxxxxxxxxx |      <error: |      <error: |      <error: |xxxxxxxxxxxxx |xxxxxxxxxxxxx |xxxxxxxxxxxxx |xxxxxxxxxxxxx |      <error: |      <error: |      <error: |xxxxxxxxxxxxx |xxxxxxxxxxxxx |xxxxxxxxxxxxx |xxxxxxxxxxxxx |      <error: |      <error: |      <error: |
bpred_bimod.retstack_pushes                   8556 |         8556 |         8556 |xxxxxxxxxxxxx |xxxxxxxxxxxxx |xxxxxxxxxxxxx |xxxxxxxxxxxxx |        16748 |        16748 |        16748 |xxxxxxxxxxxxx |xxxxxxxxxxxxx |xxxxxxxxxxxxx |xxxxxxxxxxxxx |        33132 |        33132 |        33132 |xxxxxxxxxxxxx |xxxxxxxxxxxxx |xxxxxxxxxxxxx |xxxxxxxxxxxxx |        65900 |        65900 |        65900 |
bpred_bimod.retstack_pops                     8554 |         8554 |         8554 |xxxxxxxxxxxxx |xxxxxxxxxxxxx |xxxxxxxxxxxxx |xxxxxxxxxxxxx |        16746 |        16746 |        16746 |xxxxxxxxxxxxx |xxxxxxxxxxxxx |xxxxxxxxxxxxx |xxxxxxxxxxxxx |        33130 |        33130 |        33130 |xxxxxxxxxxxxx |xxxxxxxxxxxxx |xxxxxxxxxxxxx |xxxxxxxxxxxxx |        65898 |        65898 |        65898 |
bpred_bimod.used_ras.PP                       8554 |         8554 |         8554 |xxxxxxxxxxxxx |xxxxxxxxxxxxx |xxxxxxxxxxxxx |xxxxxxxxxxxxx |        16746 |        16746 |        16746 |xxxxxxxxxxxxx |xxxxxxxxxxxxx |xxxxxxxxxxxxx |xxxxxxxxxxxxx |        33130 |        33130 |        33130 |xxxxxxxxxxxxx |xxxxxxxxxxxxx |xxxxxxxxxxxxx |xxxxxxxxxxxxx |        65898 |        65898 |        65898 |
bpred_bimod.ras_hits.PP                       8553 |         8553 |         8553 |xxxxxxxxxxxxx |xxxxxxxxxxxxx |xxxxxxxxxxxxx |xxxxxxxxxxxxx |        16745 |        16745 |        16745 |xxxxxxxxxxxxx |xxxxxxxxxxxxx |xxxxxxxxxxxxx |xxxxxxxxxxxxx |        33129 |        33129 |        33129 |xxxxxxxxxxxxx |xxxxxxxxxxxxx |xxxxxxxxxxxxx |xxxxxxxxxxxxx |        65897 |        65897 |        65897 |
bpred_bimod.ras_rate.PP                     0.9999 |       0.9999 |       0.9999 |xxxxxxxxxxxxx |xxxxxxxxxxxxx |xxxxxxxxxxxxx |xxxxxxxxxxxxx |       0.9999 |       0.9999 |       0.9999 |xxxxxxxxxxxxx |xxxxxxxxxxxxx |xxxxxxxxxxxxx |xxxxxxxxxxxxx |       1.0000 |       1.0000 |       1.0000 |xxxxxxxxxxxxx |xxxxxxxxxxxxx |xxxxxxxxxxxxx |xxxxxxxxxxxxx |       1.0000 |       1.0000 |       1.0000 |
bpred_2lev.lookups                   xxxxxxxxxxxxx |xxxxxxxxxxxxx |xxxxxxxxxxxxx |     10505932 |     10505932 |     10505932 |     10505932 |xxxxxxxxxxxxx |xxxxxxxxxxxxx |xxxxxxxxxxxxx |     41980887 |     41980887 |     41980887 |     41980887 |xxxxxxxxxxxxx |xxxxxxxxxxxxx |xxxxxxxxxxxxx |    167839696 |    167839696 |    167839696 |    167839696 |xxxxxxxxxxxxx |xxxxxxxxxxxxx |xxxxxxxxxxxxx |    671218496 |    671218496 |    671218496 |    671218496 |
bpred_2lev.updates                   xxxxxxxxxxxxx |xxxxxxxxxxxxx |xxxxxxxxxxxxx |     10505932 |     10505932 |     10505932 |     10505932 |xxxxxxxxxxxxx |xxxxxxxxxxxxx |xxxxxxxxxxxxx |     41980887 |     41980887 |     41980887 |     41980887 |xxxxxxxxxxxxx |xxxxxxxxxxxxx |xxxxxxxxxxxxx |    167839696 |    167839696 |    167839696 |    167839696 |xxxxxxxxxxxxx |xxxxxxxxxxxxx |xxxxxxxxxxxxx |    671218496 |    671218496 |    671218496 |    671218496 |
bpred_2lev.addr_hits                 xxxxxxxxxxxxx |xxxxxxxxxxxxx |xxxxxxxxxxxxx |      7939739 |      8345562 |      8582397 |      8623721 |xxxxxxxxxxxxx |xxxxxxxxxxxxx |xxxxxxxxxxxxx |     31208873 |     32257818 |     33047295 |     33201096 |xxxxxxxxxxxxx |xxxxxxxxxxxxx |xxxxxxxxxxxxx |    124775021 |    127031788 |    129011653 |    129482078 |xxxxxxxxxxxxx |xxxxxxxxxxxxx |xxxxxxxxxxxxx |    500644466 |    506696561 |    512371996 |    513665638 |
bpred_2lev.dir_hits                  xxxxxxxxxxxxx |xxxxxxxxxxxxx |xxxxxxxxxxxxx |      7939859 |      8345680 |      8582513 |      8623831 |xxxxxxxxxxxxx |xxxxxxxxxxxxx |xxxxxxxxxxxxx |     31208999 |     32257939 |     33047409 |     33201204 |xxxxxxxxxxxxx |xxxxxxxxxxxxx |xxxxxxxxxxxxx |    124775141 |    127031906 |    129011763 |    129482179 |xxxxxxxxxxxxx |xxxxxxxxxxxxx |xxxxxxxxxxxxx |    500644585 |    506696678 |    512372108 |    513665737 |
bpred_2lev.misses                    xxxxxxxxxxxxx |xxxxxxxxxxxxx |xxxxxxxxxxxxx |      2566073 |      2160252 |      1923419 |      1882101 |xxxxxxxxxxxxx |xxxxxxxxxxxxx |xxxxxxxxxxxxx |     10771888 |      9722948 |      8933478 |      8779683 |xxxxxxxxxxxxx |xxxxxxxxxxxxx |xxxxxxxxxxxxx |     43064555 |     40807790 |     38827933 |     38357517 |xxxxxxxxxxxxx |xxxxxxxxxxxxx |xxxxxxxxxxxxx |    170573911 |    164521818 |    158846388 |    157552759 |
bpred_2lev.jr_hits                   xxxxxxxxxxxxx |xxxxxxxxxxxxx |xxxxxxxxxxxxx |         8553 |         8553 |         8553 |         8553 |xxxxxxxxxxxxx |xxxxxxxxxxxxx |xxxxxxxxxxxxx |        16745 |        16745 |        16745 |        16745 |xxxxxxxxxxxxx |xxxxxxxxxxxxx |xxxxxxxxxxxxx |        33129 |        33129 |        33129 |        33129 |xxxxxxxxxxxxx |xxxxxxxxxxxxx |xxxxxxxxxxxxx |        65897 |        65897 |        65897 |        65897 |
bpred_2lev.jr_seen                   xxxxxxxxxxxxx |xxxxxxxxxxxxx |xxxxxxxxxxxxx |         8554 |         8554 |         8554 |         8554 |xxxxxxxxxxxxx |xxxxxxxxxxxxx |xxxxxxxxxxxxx |        16746 |        16746 |        16746 |        16746 |xxxxxxxxxxxxx |xxxxxxxxxxxxx |xxxxxxxxxxxxx |        33130 |        33130 |        33130 |        33130 |xxxxxxxxxxxxx |xxxxxxxxxxxxx |xxxxxxxxxxxxx |        65898 |        65898 |        65898 |        65898 |
bpred_2lev.jr_non_ras_hits.PP        xxxxxxxxxxxxx |xxxxxxxxxxxxx |xxxxxxxxxxxxx |            0 |            0 |            0 |            0 |xxxxxxxxxxxxx |xxxxxxxxxxxxx |xxxxxxxxxxxxx |            0 |            0 |            0 |            0 |xxxxxxxxxxxxx |xxxxxxxxxxxxx |xxxxxxxxxxxxx |            0 |            0 |            0 |            0 |xxxxxxxxxxxxx |xxxxxxxxxxxxx |xxxxxxxxxxxxx |            0 |            0 |            0 |            0 |
bpred_2lev.jr_non_ras_seen.PP        xxxxxxxxxxxxx |xxxxxxxxxxxxx |xxxxxxxxxxxxx |            0 |            0 |            0 |            0 |xxxxxxxxxxxxx |xxxxxxxxxxxxx |xxxxxxxxxxxxx |            0 |            0 |            0 |            0 |xxxxxxxxxxxxx |xxxxxxxxxxxxx |xxxxxxxxxxxxx |            0 |            0 |            0 |            0 |xxxxxxxxxxxxx |xxxxxxxxxxxxx |xxxxxxxxxxxxx |            0 |            0 |            0 |            0 |
bpred_2lev.bpred_addr_rate           xxxxxxxxxxxxx |xxxxxxxxxxxxx |xxxxxxxxxxxxx |       0.7557 |       0.7944 |       0.8169 |       0.8208 |xxxxxxxxxxxxx |xxxxxxxxxxxxx |xxxxxxxxxxxxx |       0.7434 |       0.7684 |       0.7872 |       0.7909 |xxxxxxxxxxxxx |xxxxxxxxxxxxx |xxxxxxxxxxxxx |       0.7434 |       0.7569 |       0.7687 |       0.7715 |xxxxxxxxxxxxx |xxxxxxxxxxxxx |xxxxxxxxxxxxx |       0.7459 |       0.7549 |       0.7633 |       0.7653 |
bpred_2lev.bpred_dir_rate            xxxxxxxxxxxxx |xxxxxxxxxxxxx |xxxxxxxxxxxxx |       0.7558 |       0.7944 |       0.8169 |       0.8209 |xxxxxxxxxxxxx |xxxxxxxxxxxxx |xxxxxxxxxxxxx |       0.7434 |       0.7684 |       0.7872 |       0.7909 |xxxxxxxxxxxxx |xxxxxxxxxxxxx |xxxxxxxxxxxxx |       0.7434 |       0.7569 |       0.7687 |       0.7715 |xxxxxxxxxxxxx |xxxxxxxxxxxxx |xxxxxxxxxxxxx |       0.7459 |       0.7549 |       0.7633 |       0.7653 |
bpred_2lev.bpred_jr_rate             xxxxxxxxxxxxx |xxxxxxxxxxxxx |xxxxxxxxxxxxx |       0.9999 |       0.9999 |       0.9999 |       0.9999 |xxxxxxxxxxxxx |xxxxxxxxxxxxx |xxxxxxxxxxxxx |       0.9999 |       0.9999 |       0.9999 |       0.9999 |xxxxxxxxxxxxx |xxxxxxxxxxxxx |xxxxxxxxxxxxx |       1.0000 |       1.0000 |       1.0000 |       1.0000 |xxxxxxxxxxxxx |xxxxxxxxxxxxx |xxxxxxxxxxxxx |       1.0000 |       1.0000 |       1.0000 |       1.0000 |
bpred_2lev.bpred_jr_non_ras_rate.PP  xxxxxxxxxxxxx |xxxxxxxxxxxxx |xxxxxxxxxxxxx |      <error: |      <error: |      <error: |      <error: |xxxxxxxxxxxxx |xxxxxxxxxxxxx |xxxxxxxxxxxxx |      <error: |      <error: |      <error: |      <error: |xxxxxxxxxxxxx |xxxxxxxxxxxxx |xxxxxxxxxxxxx |      <error: |      <error: |      <error: |      <error: |xxxxxxxxxxxxx |xxxxxxxxxxxxx |xxxxxxxxxxxxx |      <error: |      <error: |      <error: |      <error: |
bpred_2lev.retstack_pushes           xxxxxxxxxxxxx |xxxxxxxxxxxxx |xxxxxxxxxxxxx |         8556 |         8556 |         8556 |         8556 |xxxxxxxxxxxxx |xxxxxxxxxxxxx |xxxxxxxxxxxxx |        16748 |        16748 |        16748 |        16748 |xxxxxxxxxxxxx |xxxxxxxxxxxxx |xxxxxxxxxxxxx |        33132 |        33132 |        33132 |        33132 |xxxxxxxxxxxxx |xxxxxxxxxxxxx |xxxxxxxxxxxxx |        65900 |        65900 |        65900 |        65900 |
bpred_2lev.retstack_pops             xxxxxxxxxxxxx |xxxxxxxxxxxxx |xxxxxxxxxxxxx |         8554 |         8554 |         8554 |         8554 |xxxxxxxxxxxxx |xxxxxxxxxxxxx |xxxxxxxxxxxxx |        16746 |        16746 |        16746 |        16746 |xxxxxxxxxxxxx |xxxxxxxxxxxxx |xxxxxxxxxxxxx |        33130 |        33130 |        33130 |        33130 |xxxxxxxxxxxxx |xxxxxxxxxxxxx |xxxxxxxxxxxxx |        65898 |        65898 |        65898 |        65898 |
bpred_2lev.used_ras.PP               xxxxxxxxxxxxx |xxxxxxxxxxxxx |xxxxxxxxxxxxx |         8554 |         8554 |         8554 |         8554 |xxxxxxxxxxxxx |xxxxxxxxxxxxx |xxxxxxxxxxxxx |        16746 |        16746 |        16746 |        16746 |xxxxxxxxxxxxx |xxxxxxxxxxxxx |xxxxxxxxxxxxx |        33130 |        33130 |        33130 |        33130 |xxxxxxxxxxxxx |xxxxxxxxxxxxx |xxxxxxxxxxxxx |        65898 |        65898 |        65898 |        65898 |
bpred_2lev.ras_hits.PP               xxxxxxxxxxxxx |xxxxxxxxxxxxx |xxxxxxxxxxxxx |         8553 |         8553 |         8553 |         8553 |xxxxxxxxxxxxx |xxxxxxxxxxxxx |xxxxxxxxxxxxx |        16745 |        16745 |        16745 |        16745 |xxxxxxxxxxxxx |xxxxxxxxxxxxx |xxxxxxxxxxxxx |        33129 |        33129 |        33129 |        33129 |xxxxxxxxxxxxx |xxxxxxxxxxxxx |xxxxxxxxxxxxx |        65897 |        65897 |        65897 |        65897 |
bpred_2lev.ras_rate.PP               xxxxxxxxxxxxx |xxxxxxxxxxxxx |xxxxxxxxxxxxx |       0.9999 |       0.9999 |       0.9999 |       0.9999 |xxxxxxxxxxxxx |xxxxxxxxxxxxx |xxxxxxxxxxxxx |       0.9999 |       0.9999 |       0.9999 |       0.9999 |xxxxxxxxxxxxx |xxxxxxxxxxxxx |xxxxxxxxxxxxx |       1.0000 |       1.0000 |       1.0000 |       1.0000 |xxxxxxxxxxxxx |xxxxxxxxxxxxx |xxxxxxxxxxxxx |       1.0000 |       1.0000 |       1.0000 |       1.0000 |

Command list: 
	sslittle-na-sstrix-gcc -Wall -O3 -funroll-loops -finline-functions  -DRANDOM_SIZE=4096 -DSEED=0 -DSORT=on2_bubblesort2 on2_bubblesort21042341878.c simpleMain.c -o on2_bubblesort2624704735
	sim-cache -cache:dl1 dl1:256:32:1:l -cache:dl2 dl2:131072:32:1:l -cache:il1 il1:256:32:1:l -cache:il2 dl2 on2_bubblesort2624704735
	sim-cache -cache:dl1 dl1:256:32:1:l -cache:dl2 dl2:65536:32:1:l -cache:il1 il1:256:32:1:l -cache:il2 dl2 on2_bubblesort2624704735
	sim-cache -cache:dl1 dl1:1:32:256:l -cache:dl2 dl2:1:32:131072:l -cache:il1 il1:1:32:256:l -cache:il2 dl2 on2_bubblesort2624704735
	sim-cache -cache:dl1 dl1:1:32:256:l -cache:dl2 dl2:1:32:65536:l -cache:il1 il1:1:32:256:l -cache:il2 dl2 on2_bubblesort2624704735
	sim-bpred -bpred bimod -bpred:bimod 512 on2_bubblesort2624704735
	sim-bpred -bpred bimod -bpred:bimod 1024 on2_bubblesort2624704735
	sim-bpred -bpred bimod -bpred:bimod 2048 on2_bubblesort2624704735
	sim-bpred -bpred 2lev -bpred:2lev 1 512 10 1 on2_bubblesort2624704735
	sim-bpred -bpred 2lev -bpred:2lev 1 1024 10 1 on2_bubblesort2624704735
	sim-bpred -bpred 2lev -bpred:2lev 1 2048 10 1 on2_bubblesort2624704735
	sim-bpred -bpred 2lev -bpred:2lev 1 4096 10 1 on2_bubblesort2624704735
	sslittle-na-sstrix-gcc -Wall -O3 -funroll-loops -finline-functions  -DRANDOM_SIZE=8192 -DSEED=0 -DSORT=on2_bubblesort2 on2_bubblesort21042341878.c simpleMain.c -o on2_bubblesort2624704735
	sim-cache -cache:dl1 dl1:256:32:1:l -cache:dl2 dl2:131072:32:1:l -cache:il1 il1:256:32:1:l -cache:il2 dl2 on2_bubblesort2624704735
	sim-cache -cache:dl1 dl1:256:32:1:l -cache:dl2 dl2:65536:32:1:l -cache:il1 il1:256:32:1:l -cache:il2 dl2 on2_bubblesort2624704735
	sim-cache -cache:dl1 dl1:1:32:256:l -cache:dl2 dl2:1:32:131072:l -cache:il1 il1:1:32:256:l -cache:il2 dl2 on2_bubblesort2624704735
	sim-cache -cache:dl1 dl1:1:32:256:l -cache:dl2 dl2:1:32:65536:l -cache:il1 il1:1:32:256:l -cache:il2 dl2 on2_bubblesort2624704735
	sim-bpred -bpred bimod -bpred:bimod 512 on2_bubblesort2624704735
	sim-bpred -bpred bimod -bpred:bimod 1024 on2_bubblesort2624704735
	sim-bpred -bpred bimod -bpred:bimod 2048 on2_bubblesort2624704735
	sim-bpred -bpred 2lev -bpred:2lev 1 512 10 1 on2_bubblesort2624704735
	sim-bpred -bpred 2lev -bpred:2lev 1 1024 10 1 on2_bubblesort2624704735
	sim-bpred -bpred 2lev -bpred:2lev 1 2048 10 1 on2_bubblesort2624704735
	sim-bpred -bpred 2lev -bpred:2lev 1 4096 10 1 on2_bubblesort2624704735
	sslittle-na-sstrix-gcc -Wall -O3 -funroll-loops -finline-functions  -DRANDOM_SIZE=16384 -DSEED=0 -DSORT=on2_bubblesort2 on2_bubblesort21042341878.c simpleMain.c -o on2_bubblesort2624704735
	sim-cache -cache:dl1 dl1:256:32:1:l -cache:dl2 dl2:131072:32:1:l -cache:il1 il1:256:32:1:l -cache:il2 dl2 on2_bubblesort2624704735
	sim-cache -cache:dl1 dl1:256:32:1:l -cache:dl2 dl2:65536:32:1:l -cache:il1 il1:256:32:1:l -cache:il2 dl2 on2_bubblesort2624704735
	sim-cache -cache:dl1 dl1:1:32:256:l -cache:dl2 dl2:1:32:131072:l -cache:il1 il1:1:32:256:l -cache:il2 dl2 on2_bubblesort2624704735
	sim-cache -cache:dl1 dl1:1:32:256:l -cache:dl2 dl2:1:32:65536:l -cache:il1 il1:1:32:256:l -cache:il2 dl2 on2_bubblesort2624704735
	sim-bpred -bpred bimod -bpred:bimod 512 on2_bubblesort2624704735
	sim-bpred -bpred bimod -bpred:bimod 1024 on2_bubblesort2624704735
	sim-bpred -bpred bimod -bpred:bimod 2048 on2_bubblesort2624704735
	sim-bpred -bpred 2lev -bpred:2lev 1 512 10 1 on2_bubblesort2624704735
	sim-bpred -bpred 2lev -bpred:2lev 1 1024 10 1 on2_bubblesort2624704735
	sim-bpred -bpred 2lev -bpred:2lev 1 2048 10 1 on2_bubblesort2624704735
	sim-bpred -bpred 2lev -bpred:2lev 1 4096 10 1 on2_bubblesort2624704735
	sslittle-na-sstrix-gcc -Wall -O3 -funroll-loops -finline-functions  -DRANDOM_SIZE=32768 -DSEED=0 -DSORT=on2_bubblesort2 on2_bubblesort21042341878.c simpleMain.c -o on2_bubblesort2624704735
	sim-cache -cache:dl1 dl1:256:32:1:l -cache:dl2 dl2:131072:32:1:l -cache:il1 il1:256:32:1:l -cache:il2 dl2 on2_bubblesort2624704735
	sim-cache -cache:dl1 dl1:256:32:1:l -cache:dl2 dl2:65536:32:1:l -cache:il1 il1:256:32:1:l -cache:il2 dl2 on2_bubblesort2624704735
	sim-cache -cache:dl1 dl1:1:32:256:l -cache:dl2 dl2:1:32:131072:l -cache:il1 il1:1:32:256:l -cache:il2 dl2 on2_bubblesort2624704735
	sim-cache -cache:dl1 dl1:1:32:256:l -cache:dl2 dl2:1:32:65536:l -cache:il1 il1:1:32:256:l -cache:il2 dl2 on2_bubblesort2624704735
	sim-bpred -bpred bimod -bpred:bimod 512 on2_bubblesort2624704735
	sim-bpred -bpred bimod -bpred:bimod 1024 on2_bubblesort2624704735
	sim-bpred -bpred bimod -bpred:bimod 2048 on2_bubblesort2624704735
	sim-bpred -bpred 2lev -bpred:2lev 1 512 10 1 on2_bubblesort2624704735
	sim-bpred -bpred 2lev -bpred:2lev 1 1024 10 1 on2_bubblesort2624704735
	sim-bpred -bpred 2lev -bpred:2lev 1 2048 10 1 on2_bubblesort2624704735
	sim-bpred -bpred 2lev -bpred:2lev 1 4096 10 1 on2_bubblesort2624704735
