Tue Jun 15 16:43:18 2004
Run as: "./simple -c init -M 32768 shellsort"
-------------------------------------------------------------------------------------------------
sim-cache                                     4096 |         4096 |         4096 |         4096 |         8192 |         8192 |         8192 |         8192 |        16384 |        16384 |        16384 |        16384 |        32768 |        32768 |        32768 |        32768 |
-cache:dl1 dl1:256:32:1:l -cache:dl2 dl2:131072:32:1:l -cache:il1 il1:256:32:1:l -cache:il2 dl2
-cache:dl1 dl1:256:32:1:l -cache:dl2 dl2:65536:32:1:l -cache:il1 il1:256:32:1:l -cache:il2 dl2
-cache:dl1 dl1:1:32:256:l -cache:dl2 dl2:1:32:131072:l -cache:il1 il1:1:32:256:l -cache:il2 dl2
-cache:dl1 dl1:1:32:256:l -cache:dl2 dl2:1:32:65536:l -cache:il1 il1:1:32:256:l -cache:il2 dl2
-------------------------------------------------------------------------------------------------
sim_num_insn                               1123252 |      1123252 |      1123252 |      1123252 |      2513113 |      2513113 |      2513113 |      2513113 |      5491949 |      5491949 |      5491949 |      5491949 |     11691868 |     11691868 |     11691868 |     11691868 |
sim_num_refs                                251446 |       251446 |       251446 |       251446 |       546351 |       546351 |       546351 |       546351 |      1173449 |      1173449 |      1173449 |      1173449 |      2476224 |      2476224 |      2476224 |      2476224 |
sim_elapsed_time                                 1 |            1 |           29 |           15 |            3 |            3 |           41 |           22 |            6 |            6 |           64 |           38 |           13 |           13 |          122 |           68 |
sim_inst_rate                         1123252.0000 | 1123252.0000 |   38732.8276 |   74883.4667 |  837704.3333 |  837704.3333 |   61295.4390 |  114232.4091 |  915324.8333 |  915324.8333 |   85811.7031 |  144524.9737 |  899374.4615 |  899374.4615 |   95834.9836 |  171939.2353 |
il1.accesses                               1123252 |      1123252 |      1123252 |      1123252 |      2513113 |      2513113 |      2513113 |      2513113 |      5491949 |      5491949 |      5491949 |      5491949 |     11691868 |     11691868 |     11691868 |     11691868 |
il1.hits                                   1122863 |      1122863 |      1122922 |      1122922 |      2512723 |      2512723 |      2512782 |      2512782 |      5491566 |      5491566 |      5491618 |      5491618 |     11691484 |     11691484 |     11691536 |     11691536 |
il1.misses                                     389 |          389 |          330 |          330 |          390 |          390 |          331 |          331 |          383 |          383 |          331 |          331 |          384 |          384 |          332 |          332 |
il1.replacements                               197 |          197 |           74 |           74 |          197 |          197 |           75 |           75 |          190 |          190 |           75 |           75 |          190 |          190 |           76 |           76 |
il1.writebacks                                   0 |            0 |            0 |            0 |            0 |            0 |            0 |            0 |            0 |            0 |            0 |            0 |            0 |            0 |            0 |            0 |
il1.invalidations                                0 |            0 |            0 |            0 |            0 |            0 |            0 |            0 |            0 |            0 |            0 |            0 |            0 |            0 |            0 |            0 |
il1.miss_rate                               0.0003 |       0.0003 |       0.0003 |       0.0003 |       0.0002 |       0.0002 |       0.0001 |       0.0001 |       0.0001 |       0.0001 |       0.0001 |       0.0001 |       0.0000 |       0.0000 |       0.0000 |       0.0000 |
il1.repl_rate                               0.0002 |       0.0002 |       0.0001 |       0.0001 |       0.0001 |       0.0001 |       0.0000 |       0.0000 |       0.0000 |       0.0000 |       0.0000 |       0.0000 |       0.0000 |       0.0000 |       0.0000 |       0.0000 |
il1.wb_rate                                 0.0000 |       0.0000 |       0.0000 |       0.0000 |       0.0000 |       0.0000 |       0.0000 |       0.0000 |       0.0000 |       0.0000 |       0.0000 |       0.0000 |       0.0000 |       0.0000 |       0.0000 |       0.0000 |
il1.inv_rate                                0.0000 |       0.0000 |       0.0000 |       0.0000 |       0.0000 |       0.0000 |       0.0000 |       0.0000 |       0.0000 |       0.0000 |       0.0000 |       0.0000 |       0.0000 |       0.0000 |       0.0000 |       0.0000 |
dl1.accesses                                251516 |       251516 |       251516 |       251516 |       546421 |       546421 |       546421 |       546421 |      1173519 |      1173519 |      1173519 |      1173519 |      2476294 |      2476294 |      2476294 |      2476294 |
dl1.hits                                    244982 |       244982 |       244654 |       244654 |       529367 |       529367 |       528971 |       528971 |      1130503 |      1130503 |      1129743 |      1129743 |      2374912 |      2374912 |      2368856 |      2368856 |
dl1.misses                                    6534 |         6534 |         6862 |         6862 |        17054 |        17054 |        17450 |        17450 |        43016 |        43016 |        43776 |        43776 |       101382 |       101382 |       107438 |       107438 |
dl1.replacements                              6278 |         6278 |         6606 |         6606 |        16798 |        16798 |        17194 |        17194 |        42760 |        42760 |        43520 |        43520 |       101126 |       101126 |       107182 |       107182 |
dl1.writebacks                                6169 |         6169 |         6384 |         6384 |        15701 |        15701 |        15989 |        15989 |        38767 |        38767 |        39310 |        39310 |        90142 |        90142 |        94921 |        94921 |
dl1.invalidations                                0 |            0 |            0 |            0 |            0 |            0 |            0 |            0 |            0 |            0 |            0 |            0 |            0 |            0 |            0 |            0 |
dl1.miss_rate                               0.0260 |       0.0260 |       0.0273 |       0.0273 |       0.0312 |       0.0312 |       0.0319 |       0.0319 |       0.0367 |       0.0367 |       0.0373 |       0.0373 |       0.0409 |       0.0409 |       0.0434 |       0.0434 |
dl1.repl_rate                               0.0250 |       0.0250 |       0.0263 |       0.0263 |       0.0307 |       0.0307 |       0.0315 |       0.0315 |       0.0364 |       0.0364 |       0.0371 |       0.0371 |       0.0408 |       0.0408 |       0.0433 |       0.0433 |
dl1.wb_rate                                 0.0245 |       0.0245 |       0.0254 |       0.0254 |       0.0287 |       0.0287 |       0.0293 |       0.0293 |       0.0330 |       0.0330 |       0.0335 |       0.0335 |       0.0364 |       0.0364 |       0.0383 |       0.0383 |
dl1.inv_rate                                0.0000 |       0.0000 |       0.0000 |       0.0000 |       0.0000 |       0.0000 |       0.0000 |       0.0000 |       0.0000 |       0.0000 |       0.0000 |       0.0000 |       0.0000 |       0.0000 |       0.0000 |       0.0000 |
dl2.accesses                                 13092 |        13092 |        13576 |        13576 |        33145 |        33145 |        33770 |        33770 |        82166 |        82166 |        83417 |        83417 |       191908 |       191908 |       202691 |       202691 |
dl2.hits                                     11808 |        11808 |        12320 |        12320 |        31347 |        31347 |        32001 |        32001 |        79348 |        79348 |        80625 |        80625 |       187040 |       187040 |       197850 |       197850 |
dl2.misses                                    1284 |         1284 |         1256 |         1256 |         1798 |         1798 |         1769 |         1769 |         2818 |         2818 |         2792 |         2792 |         4868 |         4868 |         4841 |         4841 |
dl2.replacements                               172 |          172 |            0 |            0 |          174 |          174 |            0 |            0 |          174 |          174 |            0 |            0 |          176 |          176 |            0 |            0 |
dl2.writebacks                                  29 |           29 |            0 |            0 |           30 |           30 |            0 |            0 |           29 |           29 |            0 |            0 |           31 |           31 |            0 |            0 |
dl2.invalidations                                0 |            0 |            0 |            0 |            0 |            0 |            0 |            0 |            0 |            0 |            0 |            0 |            0 |            0 |            0 |            0 |
dl2.miss_rate                               0.0981 |       0.0981 |       0.0925 |       0.0925 |       0.0542 |       0.0542 |       0.0524 |       0.0524 |       0.0343 |       0.0343 |       0.0335 |       0.0335 |       0.0254 |       0.0254 |       0.0239 |       0.0239 |
dl2.repl_rate                               0.0131 |       0.0131 |       0.0000 |       0.0000 |       0.0052 |       0.0052 |       0.0000 |       0.0000 |       0.0021 |       0.0021 |       0.0000 |       0.0000 |       0.0009 |       0.0009 |       0.0000 |       0.0000 |
dl2.wb_rate                                 0.0022 |       0.0022 |       0.0000 |       0.0000 |       0.0009 |       0.0009 |       0.0000 |       0.0000 |       0.0004 |       0.0004 |       0.0000 |       0.0000 |       0.0002 |       0.0002 |       0.0000 |       0.0000 |
dl2.inv_rate                                0.0000 |       0.0000 |       0.0000 |       0.0000 |       0.0000 |       0.0000 |       0.0000 |       0.0000 |       0.0000 |       0.0000 |       0.0000 |       0.0000 |       0.0000 |       0.0000 |       0.0000 |       0.0000 |
itlb.accesses                              1123252 |      1123252 |      1123252 |      1123252 |      2513113 |      2513113 |      2513113 |      2513113 |      5491949 |      5491949 |      5491949 |      5491949 |     11691868 |     11691868 |     11691868 |     11691868 |
itlb.hits                                  1123245 |      1123245 |      1123245 |      1123245 |      2513106 |      2513106 |      2513106 |      2513106 |      5491942 |      5491942 |      5491942 |      5491942 |     11691861 |     11691861 |     11691861 |     11691861 |
itlb.misses                                      7 |            7 |            7 |            7 |            7 |            7 |            7 |            7 |            7 |            7 |            7 |            7 |            7 |            7 |            7 |            7 |
itlb.replacements                                0 |            0 |            0 |            0 |            0 |            0 |            0 |            0 |            0 |            0 |            0 |            0 |            0 |            0 |            0 |            0 |
itlb.writebacks                                  0 |            0 |            0 |            0 |            0 |            0 |            0 |            0 |            0 |            0 |            0 |            0 |            0 |            0 |            0 |            0 |
itlb.invalidations                               0 |            0 |            0 |            0 |            0 |            0 |            0 |            0 |            0 |            0 |            0 |            0 |            0 |            0 |            0 |            0 |
itlb.miss_rate                              0.0000 |       0.0000 |       0.0000 |       0.0000 |       0.0000 |       0.0000 |       0.0000 |       0.0000 |       0.0000 |       0.0000 |       0.0000 |       0.0000 |       0.0000 |       0.0000 |       0.0000 |       0.0000 |
itlb.repl_rate                              0.0000 |       0.0000 |       0.0000 |       0.0000 |       0.0000 |       0.0000 |       0.0000 |       0.0000 |       0.0000 |       0.0000 |       0.0000 |       0.0000 |       0.0000 |       0.0000 |       0.0000 |       0.0000 |
itlb.wb_rate                                0.0000 |       0.0000 |       0.0000 |       0.0000 |       0.0000 |       0.0000 |       0.0000 |       0.0000 |       0.0000 |       0.0000 |       0.0000 |       0.0000 |       0.0000 |       0.0000 |       0.0000 |       0.0000 |
itlb.inv_rate                               0.0000 |       0.0000 |       0.0000 |       0.0000 |       0.0000 |       0.0000 |       0.0000 |       0.0000 |       0.0000 |       0.0000 |       0.0000 |       0.0000 |       0.0000 |       0.0000 |       0.0000 |       0.0000 |
dtlb.accesses                               251516 |       251516 |       251516 |       251516 |       546421 |       546421 |       546421 |       546421 |      1173519 |      1173519 |      1173519 |      1173519 |      2476294 |      2476294 |      2476294 |      2476294 |
dtlb.hits                                   251506 |       251506 |       251506 |       251506 |       546407 |       546407 |       546407 |       546407 |      1173497 |      1173497 |      1173497 |      1173497 |      2476256 |      2476256 |      2476256 |      2476256 |
dtlb.misses                                     10 |           10 |           10 |           10 |           14 |           14 |           14 |           14 |           22 |           22 |           22 |           22 |           38 |           38 |           38 |           38 |
dtlb.replacements                                0 |            0 |            0 |            0 |            0 |            0 |            0 |            0 |            0 |            0 |            0 |            0 |            0 |            0 |            0 |            0 |
dtlb.writebacks                                  0 |            0 |            0 |            0 |            0 |            0 |            0 |            0 |            0 |            0 |            0 |            0 |            0 |            0 |            0 |            0 |
dtlb.invalidations                               0 |            0 |            0 |            0 |            0 |            0 |            0 |            0 |            0 |            0 |            0 |            0 |            0 |            0 |            0 |            0 |
dtlb.miss_rate                              0.0000 |       0.0000 |       0.0000 |       0.0000 |       0.0000 |       0.0000 |       0.0000 |       0.0000 |       0.0000 |       0.0000 |       0.0000 |       0.0000 |       0.0000 |       0.0000 |       0.0000 |       0.0000 |
dtlb.repl_rate                              0.0000 |       0.0000 |       0.0000 |       0.0000 |       0.0000 |       0.0000 |       0.0000 |       0.0000 |       0.0000 |       0.0000 |       0.0000 |       0.0000 |       0.0000 |       0.0000 |       0.0000 |       0.0000 |
dtlb.wb_rate                                0.0000 |       0.0000 |       0.0000 |       0.0000 |       0.0000 |       0.0000 |       0.0000 |       0.0000 |       0.0000 |       0.0000 |       0.0000 |       0.0000 |       0.0000 |       0.0000 |       0.0000 |       0.0000 |
dtlb.inv_rate                               0.0000 |       0.0000 |       0.0000 |       0.0000 |       0.0000 |       0.0000 |       0.0000 |       0.0000 |       0.0000 |       0.0000 |       0.0000 |       0.0000 |       0.0000 |       0.0000 |       0.0000 |       0.0000 |
ld_text_base                            0x00400000 |   0x00400000 |   0x00400000 |   0x00400000 |   0x00400000 |   0x00400000 |   0x00400000 |   0x00400000 |   0x00400000 |   0x00400000 |   0x00400000 |   0x00400000 |   0x00400000 |   0x00400000 |   0x00400000 |   0x00400000 |
ld_text_size                                 26272 |        26272 |        26272 |        26272 |        26304 |        26304 |        26304 |        26304 |        26320 |        26320 |        26320 |        26320 |        26352 |        26352 |        26352 |        26352 |
ld_data_base                            0x10000000 |   0x10000000 |   0x10000000 |   0x10000000 |   0x10000000 |   0x10000000 |   0x10000000 |   0x10000000 |   0x10000000 |   0x10000000 |   0x10000000 |   0x10000000 |   0x10000000 |   0x10000000 |   0x10000000 |   0x10000000 |
ld_data_size                                  4096 |         4096 |         4096 |         4096 |         4096 |         4096 |         4096 |         4096 |         4096 |         4096 |         4096 |         4096 |         4096 |         4096 |         4096 |         4096 |
ld_stack_base                           0x7fffc000 |   0x7fffc000 |   0x7fffc000 |   0x7fffc000 |   0x7fffc000 |   0x7fffc000 |   0x7fffc000 |   0x7fffc000 |   0x7fffc000 |   0x7fffc000 |   0x7fffc000 |   0x7fffc000 |   0x7fffc000 |   0x7fffc000 |   0x7fffc000 |   0x7fffc000 |
ld_stack_size                                16384 |        16384 |        16384 |        16384 |        16384 |        16384 |        16384 |        16384 |        16384 |        16384 |        16384 |        16384 |        16384 |        16384 |        16384 |        16384 |
ld_prog_entry                           0x00400140 |   0x00400140 |   0x00400140 |   0x00400140 |   0x00400140 |   0x00400140 |   0x00400140 |   0x00400140 |   0x00400140 |   0x00400140 |   0x00400140 |   0x00400140 |   0x00400140 |   0x00400140 |   0x00400140 |   0x00400140 |
ld_environ_base                         0x7fff8000 |   0x7fff8000 |   0x7fff8000 |   0x7fff8000 |   0x7fff8000 |   0x7fff8000 |   0x7fff8000 |   0x7fff8000 |   0x7fff8000 |   0x7fff8000 |   0x7fff8000 |   0x7fff8000 |   0x7fff8000 |   0x7fff8000 |   0x7fff8000 |   0x7fff8000 |
ld_target_big_endian                             0 |            0 |            0 |            0 |            0 |            0 |            0 |            0 |            0 |            0 |            0 |            0 |            0 |            0 |            0 |            0 |
mem.page_count                                  17 |           17 |           17 |           17 |           21 |           21 |           21 |           21 |           29 |           29 |           29 |           29 |           45 |           45 |           45 |           45 |
mem.page_mem                                   68k |          68k |          68k |          68k |          84k |          84k |          84k |          84k |         116k |         116k |         116k |         116k |         180k |         180k |         180k |         180k |
mem.ptab_misses                                 17 |           17 |           17 |           17 |           21 |           21 |           21 |           21 |           29 |           29 |           29 |           29 |           45 |           45 |           45 |           45 |
mem.ptab_accesses                          5158882 |      5158882 |      5158882 |      5158882 |     11308328 |     11308328 |     11308328 |     11308328 |     24477964 |     24477964 |     24477964 |     24477964 |     51883382 |     51883382 |     51883382 |     51883382 |
mem.ptab_miss_rate                          0.0000 |       0.0000 |       0.0000 |       0.0000 |       0.0000 |       0.0000 |       0.0000 |       0.0000 |       0.0000 |       0.0000 |       0.0000 |       0.0000 |       0.0000 |       0.0000 |       0.0000 |       0.0000 |
-------------------------------------------------------------------------------------------------
sim-bpred                                     4096 |         4096 |         4096 |         4096 |         4096 |         4096 |         4096 |         8192 |         8192 |         8192 |         8192 |         8192 |         8192 |         8192 |        16384 |        16384 |        16384 |        16384 |        16384 |        16384 |        16384 |        32768 |        32768 |        32768 |        32768 |        32768 |        32768 |        32768 |
-bpred bimod -bpred:bimod 512
-bpred bimod -bpred:bimod 1024
-bpred bimod -bpred:bimod 2048
-bpred 2lev -bpred:2lev 1 512 10 1
-bpred 2lev -bpred:2lev 1 1024 10 1
-bpred 2lev -bpred:2lev 1 2048 10 1
-bpred 2lev -bpred:2lev 1 4096 10 1
-------------------------------------------------------------------------------------------------
sim_num_insn                               1123252 |      1123252 |      1123252 |      1123252 |      1123252 |      1123252 |      1123252 |      2513113 |      2513113 |      2513113 |      2513113 |      2513113 |      2513113 |      2513113 |      5491949 |      5491949 |      5491949 |      5491949 |      5491949 |      5491949 |      5491949 |     11691868 |     11691868 |     11691868 |     11691868 |     11691868 |     11691868 |     11691868 |
sim_num_refs                                251446 |       251446 |       251446 |       251446 |       251446 |       251446 |       251446 |       546351 |       546351 |       546351 |       546351 |       546351 |       546351 |       546351 |      1173449 |      1173449 |      1173449 |      1173449 |      1173449 |      1173449 |      1173449 |      2476224 |      2476224 |      2476224 |      2476224 |      2476224 |      2476224 |      2476224 |
sim_elapsed_time                                 1 |            1 |            1 |            1 |            1 |            1 |            1 |            1 |            1 |            1 |            1 |            1 |            2 |            1 |            3 |            2 |            3 |            3 |            3 |            3 |            3 |            6 |            7 |            5 |            5 |            7 |            6 |            6 |
sim_inst_rate                         1123252.0000 | 1123252.0000 | 1123252.0000 | 1123252.0000 | 1123252.0000 | 1123252.0000 | 1123252.0000 | 2513113.0000 | 2513113.0000 | 2513113.0000 | 2513113.0000 | 2513113.0000 | 1256556.5000 | 2513113.0000 | 1830649.6667 | 2745974.5000 | 1830649.6667 | 1830649.6667 | 1830649.6667 | 1830649.6667 | 1830649.6667 | 1948644.6667 | 1670266.8571 | 2338373.6000 | 2338373.6000 | 1670266.8571 | 1948644.6667 | 1948644.6667 |
sim_num_branches                            194767 |       194767 |       194767 |       194767 |       194767 |       194767 |       194767 |       434025 |       434025 |       434025 |       434025 |       434025 |       434025 |       434025 |       945724 |       945724 |       945724 |       945724 |       945724 |       945724 |       945724 |      2009501 |      2009501 |      2009501 |      2009501 |      2009501 |      2009501 |      2009501 |
sim_IPB                                     5.7672 |       5.7672 |       5.7672 |       5.7672 |       5.7672 |       5.7672 |       5.7672 |       5.7902 |       5.7902 |       5.7902 |       5.7902 |       5.7902 |       5.7902 |       5.7902 |       5.8071 |       5.8071 |       5.8071 |       5.8071 |       5.8071 |       5.8071 |       5.8071 |       5.8183 |       5.8183 |       5.8183 |       5.8183 |       5.8183 |       5.8183 |       5.8183 |
bpred_bimod.lookups                         194767 |       194767 |       194767 |xxxxxxxxxxxxx |xxxxxxxxxxxxx |xxxxxxxxxxxxx |xxxxxxxxxxxxx |       434025 |       434025 |       434025 |xxxxxxxxxxxxx |xxxxxxxxxxxxx |xxxxxxxxxxxxx |xxxxxxxxxxxxx |       945724 |       945724 |       945724 |xxxxxxxxxxxxx |xxxxxxxxxxxxx |xxxxxxxxxxxxx |xxxxxxxxxxxxx |      2009501 |      2009501 |      2009501 |
bpred_bimod.updates                         194767 |       194767 |       194767 |xxxxxxxxxxxxx |xxxxxxxxxxxxx |xxxxxxxxxxxxx |xxxxxxxxxxxxx |       434025 |       434025 |       434025 |xxxxxxxxxxxxx |xxxxxxxxxxxxx |xxxxxxxxxxxxx |xxxxxxxxxxxxx |       945724 |       945724 |       945724 |xxxxxxxxxxxxx |xxxxxxxxxxxxx |xxxxxxxxxxxxx |xxxxxxxxxxxxx |      2009501 |      2009501 |      2009501 |
bpred_bimod.addr_hits                       158200 |       158203 |       158203 |xxxxxxxxxxxxx |xxxxxxxxxxxxx |xxxxxxxxxxxxx |xxxxxxxxxxxxx |       353576 |       353577 |       353578 |xxxxxxxxxxxxx |xxxxxxxxxxxxx |xxxxxxxxxxxxx |xxxxxxxxxxxxx |       763922 |       763925 |       763926 |xxxxxxxxxxxxx |xxxxxxxxxxxxx |xxxxxxxxxxxxx |xxxxxxxxxxxxx |      1617578 |      1617579 |      1617580 |
bpred_bimod.dir_hits                        158306 |       158307 |       158306 |xxxxxxxxxxxxx |xxxxxxxxxxxxx |xxxxxxxxxxxxx |xxxxxxxxxxxxx |       353681 |       353680 |       353680 |xxxxxxxxxxxxx |xxxxxxxxxxxxx |xxxxxxxxxxxxx |xxxxxxxxxxxxx |       764029 |       764030 |       764030 |xxxxxxxxxxxxx |xxxxxxxxxxxxx |xxxxxxxxxxxxx |xxxxxxxxxxxxx |      1617685 |      1617684 |      1617684 |
bpred_bimod.misses                           36461 |        36460 |        36461 |xxxxxxxxxxxxx |xxxxxxxxxxxxx |xxxxxxxxxxxxx |xxxxxxxxxxxxx |        80344 |        80345 |        80345 |xxxxxxxxxxxxx |xxxxxxxxxxxxx |xxxxxxxxxxxxx |xxxxxxxxxxxxx |       181695 |       181694 |       181694 |xxxxxxxxxxxxx |xxxxxxxxxxxxx |xxxxxxxxxxxxx |xxxxxxxxxxxxx |       391816 |       391817 |       391817 |
bpred_bimod.jr_hits                           8553 |         8553 |         8553 |xxxxxxxxxxxxx |xxxxxxxxxxxxx |xxxxxxxxxxxxx |xxxxxxxxxxxxx |        16745 |        16745 |        16745 |xxxxxxxxxxxxx |xxxxxxxxxxxxx |xxxxxxxxxxxxx |xxxxxxxxxxxxx |        33129 |        33129 |        33129 |xxxxxxxxxxxxx |xxxxxxxxxxxxx |xxxxxxxxxxxxx |xxxxxxxxxxxxx |        65897 |        65897 |        65897 |
bpred_bimod.jr_seen                           8554 |         8554 |         8554 |xxxxxxxxxxxxx |xxxxxxxxxxxxx |xxxxxxxxxxxxx |xxxxxxxxxxxxx |        16746 |        16746 |        16746 |xxxxxxxxxxxxx |xxxxxxxxxxxxx |xxxxxxxxxxxxx |xxxxxxxxxxxxx |        33130 |        33130 |        33130 |xxxxxxxxxxxxx |xxxxxxxxxxxxx |xxxxxxxxxxxxx |xxxxxxxxxxxxx |        65898 |        65898 |        65898 |
bpred_bimod.jr_non_ras_hits.PP                   0 |            0 |            0 |xxxxxxxxxxxxx |xxxxxxxxxxxxx |xxxxxxxxxxxxx |xxxxxxxxxxxxx |            0 |            0 |            0 |xxxxxxxxxxxxx |xxxxxxxxxxxxx |xxxxxxxxxxxxx |xxxxxxxxxxxxx |            0 |            0 |            0 |xxxxxxxxxxxxx |xxxxxxxxxxxxx |xxxxxxxxxxxxx |xxxxxxxxxxxxx |            0 |            0 |            0 |
bpred_bimod.jr_non_ras_seen.PP                   0 |            0 |            0 |xxxxxxxxxxxxx |xxxxxxxxxxxxx |xxxxxxxxxxxxx |xxxxxxxxxxxxx |            0 |            0 |            0 |xxxxxxxxxxxxx |xxxxxxxxxxxxx |xxxxxxxxxxxxx |xxxxxxxxxxxxx |            0 |            0 |            0 |xxxxxxxxxxxxx |xxxxxxxxxxxxx |xxxxxxxxxxxxx |xxxxxxxxxxxxx |            0 |            0 |            0 |
bpred_bimod.bpred_addr_rate                 0.8123 |       0.8123 |       0.8123 |xxxxxxxxxxxxx |xxxxxxxxxxxxx |xxxxxxxxxxxxx |xxxxxxxxxxxxx |       0.8146 |       0.8146 |       0.8146 |xxxxxxxxxxxxx |xxxxxxxxxxxxx |xxxxxxxxxxxxx |xxxxxxxxxxxxx |       0.8078 |       0.8078 |       0.8078 |xxxxxxxxxxxxx |xxxxxxxxxxxxx |xxxxxxxxxxxxx |xxxxxxxxxxxxx |       0.8050 |       0.8050 |       0.8050 |
bpred_bimod.bpred_dir_rate                  0.8128 |       0.8128 |       0.8128 |xxxxxxxxxxxxx |xxxxxxxxxxxxx |xxxxxxxxxxxxx |xxxxxxxxxxxxx |       0.8149 |       0.8149 |       0.8149 |xxxxxxxxxxxxx |xxxxxxxxxxxxx |xxxxxxxxxxxxx |xxxxxxxxxxxxx |       0.8079 |       0.8079 |       0.8079 |xxxxxxxxxxxxx |xxxxxxxxxxxxx |xxxxxxxxxxxxx |xxxxxxxxxxxxx |       0.8050 |       0.8050 |       0.8050 |
bpred_bimod.bpred_jr_rate                   0.9999 |       0.9999 |       0.9999 |xxxxxxxxxxxxx |xxxxxxxxxxxxx |xxxxxxxxxxxxx |xxxxxxxxxxxxx |       0.9999 |       0.9999 |       0.9999 |xxxxxxxxxxxxx |xxxxxxxxxxxxx |xxxxxxxxxxxxx |xxxxxxxxxxxxx |       1.0000 |       1.0000 |       1.0000 |xxxxxxxxxxxxx |xxxxxxxxxxxxx |xxxxxxxxxxxxx |xxxxxxxxxxxxx |       1.0000 |       1.0000 |       1.0000 |
bpred_bimod.bpred_jr_non_ras_rate.PP       <error: |      <error: |      <error: |xxxxxxxxxxxxx |xxxxxxxxxxxxx |xxxxxxxxxxxxx |xxxxxxxxxxxxx |      <error: |      <error: |      <error: |xxxxxxxxxxxxx |xxxxxxxxxxxxx |xxxxxxxxxxxxx |xxxxxxxxxxxxx |      <error: |      <error: |      <error: |xxxxxxxxxxxxx |xxxxxxxxxxxxx |xxxxxxxxxxxxx |xxxxxxxxxxxxx |      <error: |      <error: |      <error: |
bpred_bimod.retstack_pushes                   8556 |         8556 |         8556 |xxxxxxxxxxxxx |xxxxxxxxxxxxx |xxxxxxxxxxxxx |xxxxxxxxxxxxx |        16748 |        16748 |        16748 |xxxxxxxxxxxxx |xxxxxxxxxxxxx |xxxxxxxxxxxxx |xxxxxxxxxxxxx |        33132 |        33132 |        33132 |xxxxxxxxxxxxx |xxxxxxxxxxxxx |xxxxxxxxxxxxx |xxxxxxxxxxxxx |        65900 |        65900 |        65900 |
bpred_bimod.retstack_pops                     8554 |         8554 |         8554 |xxxxxxxxxxxxx |xxxxxxxxxxxxx |xxxxxxxxxxxxx |xxxxxxxxxxxxx |        16746 |        16746 |        16746 |xxxxxxxxxxxxx |xxxxxxxxxxxxx |xxxxxxxxxxxxx |xxxxxxxxxxxxx |        33130 |        33130 |        33130 |xxxxxxxxxxxxx |xxxxxxxxxxxxx |xxxxxxxxxxxxx |xxxxxxxxxxxxx |        65898 |        65898 |        65898 |
bpred_bimod.used_ras.PP                       8554 |         8554 |         8554 |xxxxxxxxxxxxx |xxxxxxxxxxxxx |xxxxxxxxxxxxx |xxxxxxxxxxxxx |        16746 |        16746 |        16746 |xxxxxxxxxxxxx |xxxxxxxxxxxxx |xxxxxxxxxxxxx |xxxxxxxxxxxxx |        33130 |        33130 |        33130 |xxxxxxxxxxxxx |xxxxxxxxxxxxx |xxxxxxxxxxxxx |xxxxxxxxxxxxx |        65898 |        65898 |        65898 |
bpred_bimod.ras_hits.PP                       8553 |         8553 |         8553 |xxxxxxxxxxxxx |xxxxxxxxxxxxx |xxxxxxxxxxxxx |xxxxxxxxxxxxx |        16745 |        16745 |        16745 |xxxxxxxxxxxxx |xxxxxxxxxxxxx |xxxxxxxxxxxxx |xxxxxxxxxxxxx |        33129 |        33129 |        33129 |xxxxxxxxxxxxx |xxxxxxxxxxxxx |xxxxxxxxxxxxx |xxxxxxxxxxxxx |        65897 |        65897 |        65897 |
bpred_bimod.ras_rate.PP                     0.9999 |       0.9999 |       0.9999 |xxxxxxxxxxxxx |xxxxxxxxxxxxx |xxxxxxxxxxxxx |xxxxxxxxxxxxx |       0.9999 |       0.9999 |       0.9999 |xxxxxxxxxxxxx |xxxxxxxxxxxxx |xxxxxxxxxxxxx |xxxxxxxxxxxxx |       1.0000 |       1.0000 |       1.0000 |xxxxxxxxxxxxx |xxxxxxxxxxxxx |xxxxxxxxxxxxx |xxxxxxxxxxxxx |       1.0000 |       1.0000 |       1.0000 |
bpred_2lev.lookups                   xxxxxxxxxxxxx |xxxxxxxxxxxxx |xxxxxxxxxxxxx |       194767 |       194767 |       194767 |       194767 |xxxxxxxxxxxxx |xxxxxxxxxxxxx |xxxxxxxxxxxxx |       434025 |       434025 |       434025 |       434025 |xxxxxxxxxxxxx |xxxxxxxxxxxxx |xxxxxxxxxxxxx |       945724 |       945724 |       945724 |       945724 |xxxxxxxxxxxxx |xxxxxxxxxxxxx |xxxxxxxxxxxxx |      2009501 |      2009501 |      2009501 |      2009501 |
bpred_2lev.updates                   xxxxxxxxxxxxx |xxxxxxxxxxxxx |xxxxxxxxxxxxx |       194767 |       194767 |       194767 |       194767 |xxxxxxxxxxxxx |xxxxxxxxxxxxx |xxxxxxxxxxxxx |       434025 |       434025 |       434025 |       434025 |xxxxxxxxxxxxx |xxxxxxxxxxxxx |xxxxxxxxxxxxx |       945724 |       945724 |       945724 |       945724 |xxxxxxxxxxxxx |xxxxxxxxxxxxx |xxxxxxxxxxxxx |      2009501 |      2009501 |      2009501 |      2009501 |
bpred_2lev.addr_hits                 xxxxxxxxxxxxx |xxxxxxxxxxxxx |xxxxxxxxxxxxx |       160899 |       161404 |       161803 |       161855 |xxxxxxxxxxxxx |xxxxxxxxxxxxx |xxxxxxxxxxxxx |       359003 |       359837 |       360562 |       360618 |xxxxxxxxxxxxx |xxxxxxxxxxxxx |xxxxxxxxxxxxx |       773770 |       777135 |       779288 |       779383 |xxxxxxxxxxxxx |xxxxxxxxxxxxx |xxxxxxxxxxxxx |      1643672 |      1648949 |      1652486 |      1652641 |
bpred_2lev.dir_hits                  xxxxxxxxxxxxx |xxxxxxxxxxxxx |xxxxxxxxxxxxx |       161008 |       161513 |       161907 |       161955 |xxxxxxxxxxxxx |xxxxxxxxxxxxx |xxxxxxxxxxxxx |       359111 |       359945 |       360665 |       360721 |xxxxxxxxxxxxx |xxxxxxxxxxxxx |xxxxxxxxxxxxx |       773874 |       777239 |       779388 |       779484 |xxxxxxxxxxxxx |xxxxxxxxxxxxx |xxxxxxxxxxxxx |      1643778 |      1649052 |      1652585 |      1652740 |
bpred_2lev.misses                    xxxxxxxxxxxxx |xxxxxxxxxxxxx |xxxxxxxxxxxxx |        33759 |        33254 |        32860 |        32812 |xxxxxxxxxxxxx |xxxxxxxxxxxxx |xxxxxxxxxxxxx |        74914 |        74080 |        73360 |        73304 |xxxxxxxxxxxxx |xxxxxxxxxxxxx |xxxxxxxxxxxxx |       171850 |       168485 |       166336 |       166240 |xxxxxxxxxxxxx |xxxxxxxxxxxxx |xxxxxxxxxxxxx |       365723 |       360449 |       356916 |       356761 |
bpred_2lev.jr_hits                   xxxxxxxxxxxxx |xxxxxxxxxxxxx |xxxxxxxxxxxxx |         8553 |         8553 |         8553 |         8553 |xxxxxxxxxxxxx |xxxxxxxxxxxxx |xxxxxxxxxxxxx |        16745 |        16745 |        16745 |        16745 |xxxxxxxxxxxxx |xxxxxxxxxxxxx |xxxxxxxxxxxxx |        33129 |        33129 |        33129 |        33129 |xxxxxxxxxxxxx |xxxxxxxxxxxxx |xxxxxxxxxxxxx |        65897 |        65897 |        65897 |        65897 |
bpred_2lev.jr_seen                   xxxxxxxxxxxxx |xxxxxxxxxxxxx |xxxxxxxxxxxxx |         8554 |         8554 |         8554 |         8554 |xxxxxxxxxxxxx |xxxxxxxxxxxxx |xxxxxxxxxxxxx |        16746 |        16746 |        16746 |        16746 |xxxxxxxxxxxxx |xxxxxxxxxxxxx |xxxxxxxxxxxxx |        33130 |        33130 |        33130 |        33130 |xxxxxxxxxxxxx |xxxxxxxxxxxxx |xxxxxxxxxxxxx |        65898 |        65898 |        65898 |        65898 |
bpred_2lev.jr_non_ras_hits.PP        xxxxxxxxxxxxx |xxxxxxxxxxxxx |xxxxxxxxxxxxx |            0 |            0 |            0 |            0 |xxxxxxxxxxxxx |xxxxxxxxxxxxx |xxxxxxxxxxxxx |            0 |            0 |            0 |            0 |xxxxxxxxxxxxx |xxxxxxxxxxxxx |xxxxxxxxxxxxx |            0 |            0 |            0 |            0 |xxxxxxxxxxxxx |xxxxxxxxxxxxx |xxxxxxxxxxxxx |            0 |            0 |            0 |            0 |
bpred_2lev.jr_non_ras_seen.PP        xxxxxxxxxxxxx |xxxxxxxxxxxxx |xxxxxxxxxxxxx |            0 |            0 |            0 |            0 |xxxxxxxxxxxxx |xxxxxxxxxxxxx |xxxxxxxxxxxxx |            0 |            0 |            0 |            0 |xxxxxxxxxxxxx |xxxxxxxxxxxxx |xxxxxxxxxxxxx |            0 |            0 |            0 |            0 |xxxxxxxxxxxxx |xxxxxxxxxxxxx |xxxxxxxxxxxxx |            0 |            0 |            0 |            0 |
bpred_2lev.bpred_addr_rate           xxxxxxxxxxxxx |xxxxxxxxxxxxx |xxxxxxxxxxxxx |       0.8261 |       0.8287 |       0.8308 |       0.8310 |xxxxxxxxxxxxx |xxxxxxxxxxxxx |xxxxxxxxxxxxx |       0.8271 |       0.8291 |       0.8307 |       0.8309 |xxxxxxxxxxxxx |xxxxxxxxxxxxx |xxxxxxxxxxxxx |       0.8182 |       0.8217 |       0.8240 |       0.8241 |xxxxxxxxxxxxx |xxxxxxxxxxxxx |xxxxxxxxxxxxx |       0.8180 |       0.8206 |       0.8223 |       0.8224 |
bpred_2lev.bpred_dir_rate            xxxxxxxxxxxxx |xxxxxxxxxxxxx |xxxxxxxxxxxxx |       0.8267 |       0.8293 |       0.8313 |       0.8315 |xxxxxxxxxxxxx |xxxxxxxxxxxxx |xxxxxxxxxxxxx |       0.8274 |       0.8293 |       0.8310 |       0.8311 |xxxxxxxxxxxxx |xxxxxxxxxxxxx |xxxxxxxxxxxxx |       0.8183 |       0.8218 |       0.8241 |       0.8242 |xxxxxxxxxxxxx |xxxxxxxxxxxxx |xxxxxxxxxxxxx |       0.8180 |       0.8206 |       0.8224 |       0.8225 |
bpred_2lev.bpred_jr_rate             xxxxxxxxxxxxx |xxxxxxxxxxxxx |xxxxxxxxxxxxx |       0.9999 |       0.9999 |       0.9999 |       0.9999 |xxxxxxxxxxxxx |xxxxxxxxxxxxx |xxxxxxxxxxxxx |       0.9999 |       0.9999 |       0.9999 |       0.9999 |xxxxxxxxxxxxx |xxxxxxxxxxxxx |xxxxxxxxxxxxx |       1.0000 |       1.0000 |       1.0000 |       1.0000 |xxxxxxxxxxxxx |xxxxxxxxxxxxx |xxxxxxxxxxxxx |       1.0000 |       1.0000 |       1.0000 |       1.0000 |
bpred_2lev.bpred_jr_non_ras_rate.PP  xxxxxxxxxxxxx |xxxxxxxxxxxxx |xxxxxxxxxxxxx |      <error: |      <error: |      <error: |      <error: |xxxxxxxxxxxxx |xxxxxxxxxxxxx |xxxxxxxxxxxxx |      <error: |      <error: |      <error: |      <error: |xxxxxxxxxxxxx |xxxxxxxxxxxxx |xxxxxxxxxxxxx |      <error: |      <error: |      <error: |      <error: |xxxxxxxxxxxxx |xxxxxxxxxxxxx |xxxxxxxxxxxxx |      <error: |      <error: |      <error: |      <error: |
bpred_2lev.retstack_pushes           xxxxxxxxxxxxx |xxxxxxxxxxxxx |xxxxxxxxxxxxx |         8556 |         8556 |         8556 |         8556 |xxxxxxxxxxxxx |xxxxxxxxxxxxx |xxxxxxxxxxxxx |        16748 |        16748 |        16748 |        16748 |xxxxxxxxxxxxx |xxxxxxxxxxxxx |xxxxxxxxxxxxx |        33132 |        33132 |        33132 |        33132 |xxxxxxxxxxxxx |xxxxxxxxxxxxx |xxxxxxxxxxxxx |        65900 |        65900 |        65900 |        65900 |
bpred_2lev.retstack_pops             xxxxxxxxxxxxx |xxxxxxxxxxxxx |xxxxxxxxxxxxx |         8554 |         8554 |         8554 |         8554 |xxxxxxxxxxxxx |xxxxxxxxxxxxx |xxxxxxxxxxxxx |        16746 |        16746 |        16746 |        16746 |xxxxxxxxxxxxx |xxxxxxxxxxxxx |xxxxxxxxxxxxx |        33130 |        33130 |        33130 |        33130 |xxxxxxxxxxxxx |xxxxxxxxxxxxx |xxxxxxxxxxxxx |        65898 |        65898 |        65898 |        65898 |
bpred_2lev.used_ras.PP               xxxxxxxxxxxxx |xxxxxxxxxxxxx |xxxxxxxxxxxxx |         8554 |         8554 |         8554 |         8554 |xxxxxxxxxxxxx |xxxxxxxxxxxxx |xxxxxxxxxxxxx |        16746 |        16746 |        16746 |        16746 |xxxxxxxxxxxxx |xxxxxxxxxxxxx |xxxxxxxxxxxxx |        33130 |        33130 |        33130 |        33130 |xxxxxxxxxxxxx |xxxxxxxxxxxxx |xxxxxxxxxxxxx |        65898 |        65898 |        65898 |        65898 |
bpred_2lev.ras_hits.PP               xxxxxxxxxxxxx |xxxxxxxxxxxxx |xxxxxxxxxxxxx |         8553 |         8553 |         8553 |         8553 |xxxxxxxxxxxxx |xxxxxxxxxxxxx |xxxxxxxxxxxxx |        16745 |        16745 |        16745 |        16745 |xxxxxxxxxxxxx |xxxxxxxxxxxxx |xxxxxxxxxxxxx |        33129 |        33129 |        33129 |        33129 |xxxxxxxxxxxxx |xxxxxxxxxxxxx |xxxxxxxxxxxxx |        65897 |        65897 |        65897 |        65897 |
bpred_2lev.ras_rate.PP               xxxxxxxxxxxxx |xxxxxxxxxxxxx |xxxxxxxxxxxxx |       0.9999 |       0.9999 |       0.9999 |       0.9999 |xxxxxxxxxxxxx |xxxxxxxxxxxxx |xxxxxxxxxxxxx |       0.9999 |       0.9999 |       0.9999 |       0.9999 |xxxxxxxxxxxxx |xxxxxxxxxxxxx |xxxxxxxxxxxxx |       1.0000 |       1.0000 |       1.0000 |       1.0000 |xxxxxxxxxxxxx |xxxxxxxxxxxxx |xxxxxxxxxxxxx |       1.0000 |       1.0000 |       1.0000 |       1.0000 |

Command list: 
	sslittle-na-sstrix-gcc -Wall -O3 -funroll-loops -finline-functions  -DRANDOM_SIZE=4096 -DSEED=0 -DSORT=shellsort shellsort1022633685.c simpleMain.c -o shellsort1056657563
	sim-cache -cache:dl1 dl1:256:32:1:l -cache:dl2 dl2:131072:32:1:l -cache:il1 il1:256:32:1:l -cache:il2 dl2 shellsort1056657563
	sim-cache -cache:dl1 dl1:256:32:1:l -cache:dl2 dl2:65536:32:1:l -cache:il1 il1:256:32:1:l -cache:il2 dl2 shellsort1056657563
	sim-cache -cache:dl1 dl1:1:32:256:l -cache:dl2 dl2:1:32:131072:l -cache:il1 il1:1:32:256:l -cache:il2 dl2 shellsort1056657563
	sim-cache -cache:dl1 dl1:1:32:256:l -cache:dl2 dl2:1:32:65536:l -cache:il1 il1:1:32:256:l -cache:il2 dl2 shellsort1056657563
	sim-bpred -bpred bimod -bpred:bimod 512 shellsort1056657563
	sim-bpred -bpred bimod -bpred:bimod 1024 shellsort1056657563
	sim-bpred -bpred bimod -bpred:bimod 2048 shellsort1056657563
	sim-bpred -bpred 2lev -bpred:2lev 1 512 10 1 shellsort1056657563
	sim-bpred -bpred 2lev -bpred:2lev 1 1024 10 1 shellsort1056657563
	sim-bpred -bpred 2lev -bpred:2lev 1 2048 10 1 shellsort1056657563
	sim-bpred -bpred 2lev -bpred:2lev 1 4096 10 1 shellsort1056657563
	sslittle-na-sstrix-gcc -Wall -O3 -funroll-loops -finline-functions  -DRANDOM_SIZE=8192 -DSEED=0 -DSORT=shellsort shellsort1022633685.c simpleMain.c -o shellsort1056657563
	sim-cache -cache:dl1 dl1:256:32:1:l -cache:dl2 dl2:131072:32:1:l -cache:il1 il1:256:32:1:l -cache:il2 dl2 shellsort1056657563
	sim-cache -cache:dl1 dl1:256:32:1:l -cache:dl2 dl2:65536:32:1:l -cache:il1 il1:256:32:1:l -cache:il2 dl2 shellsort1056657563
	sim-cache -cache:dl1 dl1:1:32:256:l -cache:dl2 dl2:1:32:131072:l -cache:il1 il1:1:32:256:l -cache:il2 dl2 shellsort1056657563
	sim-cache -cache:dl1 dl1:1:32:256:l -cache:dl2 dl2:1:32:65536:l -cache:il1 il1:1:32:256:l -cache:il2 dl2 shellsort1056657563
	sim-bpred -bpred bimod -bpred:bimod 512 shellsort1056657563
	sim-bpred -bpred bimod -bpred:bimod 1024 shellsort1056657563
	sim-bpred -bpred bimod -bpred:bimod 2048 shellsort1056657563
	sim-bpred -bpred 2lev -bpred:2lev 1 512 10 1 shellsort1056657563
	sim-bpred -bpred 2lev -bpred:2lev 1 1024 10 1 shellsort1056657563
	sim-bpred -bpred 2lev -bpred:2lev 1 2048 10 1 shellsort1056657563
	sim-bpred -bpred 2lev -bpred:2lev 1 4096 10 1 shellsort1056657563
	sslittle-na-sstrix-gcc -Wall -O3 -funroll-loops -finline-functions  -DRANDOM_SIZE=16384 -DSEED=0 -DSORT=shellsort shellsort1022633685.c simpleMain.c -o shellsort1056657563
	sim-cache -cache:dl1 dl1:256:32:1:l -cache:dl2 dl2:131072:32:1:l -cache:il1 il1:256:32:1:l -cache:il2 dl2 shellsort1056657563
	sim-cache -cache:dl1 dl1:256:32:1:l -cache:dl2 dl2:65536:32:1:l -cache:il1 il1:256:32:1:l -cache:il2 dl2 shellsort1056657563
	sim-cache -cache:dl1 dl1:1:32:256:l -cache:dl2 dl2:1:32:131072:l -cache:il1 il1:1:32:256:l -cache:il2 dl2 shellsort1056657563
	sim-cache -cache:dl1 dl1:1:32:256:l -cache:dl2 dl2:1:32:65536:l -cache:il1 il1:1:32:256:l -cache:il2 dl2 shellsort1056657563
	sim-bpred -bpred bimod -bpred:bimod 512 shellsort1056657563
	sim-bpred -bpred bimod -bpred:bimod 1024 shellsort1056657563
	sim-bpred -bpred bimod -bpred:bimod 2048 shellsort1056657563
	sim-bpred -bpred 2lev -bpred:2lev 1 512 10 1 shellsort1056657563
	sim-bpred -bpred 2lev -bpred:2lev 1 1024 10 1 shellsort1056657563
	sim-bpred -bpred 2lev -bpred:2lev 1 2048 10 1 shellsort1056657563
	sim-bpred -bpred 2lev -bpred:2lev 1 4096 10 1 shellsort1056657563
	sslittle-na-sstrix-gcc -Wall -O3 -funroll-loops -finline-functions  -DRANDOM_SIZE=32768 -DSEED=0 -DSORT=shellsort shellsort1022633685.c simpleMain.c -o shellsort1056657563
	sim-cache -cache:dl1 dl1:256:32:1:l -cache:dl2 dl2:131072:32:1:l -cache:il1 il1:256:32:1:l -cache:il2 dl2 shellsort1056657563
	sim-cache -cache:dl1 dl1:256:32:1:l -cache:dl2 dl2:65536:32:1:l -cache:il1 il1:256:32:1:l -cache:il2 dl2 shellsort1056657563
	sim-cache -cache:dl1 dl1:1:32:256:l -cache:dl2 dl2:1:32:131072:l -cache:il1 il1:1:32:256:l -cache:il2 dl2 shellsort1056657563
	sim-cache -cache:dl1 dl1:1:32:256:l -cache:dl2 dl2:1:32:65536:l -cache:il1 il1:1:32:256:l -cache:il2 dl2 shellsort1056657563
	sim-bpred -bpred bimod -bpred:bimod 512 shellsort1056657563
	sim-bpred -bpred bimod -bpred:bimod 1024 shellsort1056657563
	sim-bpred -bpred bimod -bpred:bimod 2048 shellsort1056657563
	sim-bpred -bpred 2lev -bpred:2lev 1 512 10 1 shellsort1056657563
	sim-bpred -bpred 2lev -bpred:2lev 1 1024 10 1 shellsort1056657563
	sim-bpred -bpred 2lev -bpred:2lev 1 2048 10 1 shellsort1056657563
	sim-bpred -bpred 2lev -bpred:2lev 1 4096 10 1 shellsort1056657563
