Sun Mar 14 11:10:04 2004
Run as: "./simple -c  cache_quicksort"
-------------------------------------------------------------------------------------------------
sim-cache                                     4096 |         4096 |         4096 |         4096 |         8192 |         8192 |         8192 |         8192 |        16384 |        16384 |        16384 |        16384 |        32768 |        32768 |        32768 |        32768 |        65536 |        65536 |        65536 |        65536 |       131072 |       131072 |       131072 |       131072 |       262144 |       262144 |       262144 |       262144 |       524288 |       524288 |       524288 |       524288 |      1048576 |      1048576 |      1048576 |      1048576 |      2097152 |      2097152 |      2097152 |      2097152 |      4194304 |      4194304 |      4194304 |      4194304 |
-cache:dl1 dl1:256:32:1:l -cache:dl2 dl2:131072:32:1:l -cache:il1 il1:256:32:1:l -cache:il2 dl2
-cache:dl1 dl1:256:32:1:l -cache:dl2 dl2:65536:32:1:l -cache:il1 il1:256:32:1:l -cache:il2 dl2
-cache:dl1 dl1:1:32:256:l -cache:dl2 dl2:1:32:131072:l -cache:il1 il1:1:32:256:l -cache:il2 dl2
-cache:dl1 dl1:1:32:256:l -cache:dl2 dl2:1:32:65536:l -cache:il1 il1:1:32:256:l -cache:il2 dl2
-------------------------------------------------------------------------------------------------
sim_num_insn                                638167 |       638167 |       638167 |       638167 |      1341610 |      1341610 |      1341610 |      1341610 |      2792153 |      2792153 |      2792153 |      2792153 |      5838451 |      5838451 |      5838451 |      5838451 |     12271407 |     12271407 |     12271407 |     12271407 |     26038063 |     26038063 |     26038063 |     26038063 |     53764877 |     53764877 |     53764877 |     53764877 |    113822941 |    113822941 |    113822941 |    113822941 |    235156636 |    235156636 |    235156636 |    235156636 |    490345058 |    490345058 |    490345058 |    490345058 |   1010958807 |   1010958807 |   1010958807 |   1010958807 |
sim_num_refs                                195562 |       195562 |       195562 |       195562 |       400752 |       400752 |       400752 |       400752 |       823467 |       823467 |       823467 |       823467 |      1705745 |      1705745 |      1705745 |      1705745 |      3545189 |      3545189 |      3545189 |      3545189 |      7406315 |      7406315 |      7406315 |      7406315 |     15267071 |     15267071 |     15267071 |     15267071 |     31843071 |     31843071 |     31843071 |     31843071 |     65607945 |     65607945 |     65607945 |     65607945 |    135799675 |    135799675 |    135799675 |    135799675 |    279319156 |    279319156 |    279319156 |    279319156 |
sim_elapsed_time                                 1 |            1 |            7 |            4 |            1 |            1 |           11 |            5 |            1 |            1 |           16 |            8 |            1 |            2 |           27 |           14 |            3 |            4 |           48 |           26 |            7 |            7 |           90 |           46 |           14 |           15 |          166 |           80 |           30 |           30 |          288 |          116 |           62 |           62 |          404 |          151 |          130 |          130 |          477 |          222 |          268 |          268 |          632 |          369 |
sim_inst_rate                          638167.0000 |  638167.0000 |   91166.7143 |  159541.7500 | 1341610.0000 | 1341610.0000 |  121964.5455 |  268322.0000 | 2792153.0000 | 2792153.0000 |  174509.5625 |  349019.1250 | 5838451.0000 | 2919225.5000 |  216238.9259 |  417032.2143 | 4090469.0000 | 3067851.7500 |  255654.3125 |  471977.1923 | 3719723.2857 | 3719723.2857 |  289311.8111 |  566044.8478 | 3840348.3571 | 3584325.1333 |  323884.8012 |  672060.9625 | 3794098.0333 | 3794098.0333 |  395218.5451 |  981232.2500 | 3792848.9677 | 3792848.9677 |  582070.8812 | 1557328.7152 | 3771885.0615 | 3771885.0615 | 1027977.0608 | 2208761.5225 | 3772234.3545 | 3772234.3545 | 1599618.3655 | 2739725.7642 |
il1.accesses                                638167 |       638167 |       638167 |       638167 |      1341610 |      1341610 |      1341610 |      1341610 |      2792153 |      2792153 |      2792153 |      2792153 |      5838451 |      5838451 |      5838451 |      5838451 |     12271407 |     12271407 |     12271407 |     12271407 |     26038063 |     26038063 |     26038063 |     26038063 |     53764877 |     53764877 |     53764877 |     53764877 |    113822941 |    113822941 |    113822941 |    113822941 |    235156636 |    235156636 |    235156636 |    235156636 |    490345058 |    490345058 |    490345058 |    490345058 |   1010958807 |   1010958807 |   1010958807 |   1010958807 |
il1.hits                                    637643 |       637643 |       637726 |       637726 |      1341085 |      1341085 |      1341168 |      1341168 |      2791612 |      2791612 |      2791699 |      2791699 |      5837910 |      5837910 |      5837996 |      5837996 |     12270866 |     12270866 |     12270952 |     12270952 |     26037522 |     26037522 |     26037608 |     26037608 |     53764336 |     53764336 |     53764422 |     53764422 |    113822400 |    113822400 |    113822486 |    113822486 |    235156095 |    235156095 |    235156181 |    235156181 |    490344517 |    490344517 |    490344603 |    490344603 |   1010958266 |   1010958266 |   1010958352 |   1010958352 |
il1.misses                                     524 |          524 |          441 |          441 |          525 |          525 |          442 |          442 |          541 |          541 |          454 |          454 |          541 |          541 |          455 |          455 |          541 |          541 |          455 |          455 |          541 |          541 |          455 |          455 |          541 |          541 |          455 |          455 |          541 |          541 |          455 |          455 |          541 |          541 |          455 |          455 |          541 |          541 |          455 |          455 |          541 |          541 |          455 |          455 |
il1.replacements                               293 |          293 |          185 |          185 |          294 |          294 |          186 |          186 |          310 |          310 |          198 |          198 |          310 |          310 |          199 |          199 |          310 |          310 |          199 |          199 |          310 |          310 |          199 |          199 |          310 |          310 |          199 |          199 |          310 |          310 |          199 |          199 |          310 |          310 |          199 |          199 |          310 |          310 |          199 |          199 |          310 |          310 |          199 |          199 |
il1.writebacks                                   0 |            0 |            0 |            0 |            0 |            0 |            0 |            0 |            0 |            0 |            0 |            0 |            0 |            0 |            0 |            0 |            0 |            0 |            0 |            0 |            0 |            0 |            0 |            0 |            0 |            0 |            0 |            0 |            0 |            0 |            0 |            0 |            0 |            0 |            0 |            0 |            0 |            0 |            0 |            0 |            0 |            0 |            0 |            0 |
il1.invalidations                                0 |            0 |            0 |            0 |            0 |            0 |            0 |            0 |            0 |            0 |            0 |            0 |            0 |            0 |            0 |            0 |            0 |            0 |            0 |            0 |            0 |            0 |            0 |            0 |            0 |            0 |            0 |            0 |            0 |            0 |            0 |            0 |            0 |            0 |            0 |            0 |            0 |            0 |            0 |            0 |            0 |            0 |            0 |            0 |
il1.miss_rate                               0.0008 |       0.0008 |       0.0007 |       0.0007 |       0.0004 |       0.0004 |       0.0003 |       0.0003 |       0.0002 |       0.0002 |       0.0002 |       0.0002 |       0.0001 |       0.0001 |       0.0001 |       0.0001 |       0.0000 |       0.0000 |       0.0000 |       0.0000 |       0.0000 |       0.0000 |       0.0000 |       0.0000 |       0.0000 |       0.0000 |       0.0000 |       0.0000 |       0.0000 |       0.0000 |       0.0000 |       0.0000 |       0.0000 |       0.0000 |       0.0000 |       0.0000 |       0.0000 |       0.0000 |       0.0000 |       0.0000 |       0.0000 |       0.0000 |       0.0000 |       0.0000 |
il1.repl_rate                               0.0005 |       0.0005 |       0.0003 |       0.0003 |       0.0002 |       0.0002 |       0.0001 |       0.0001 |       0.0001 |       0.0001 |       0.0001 |       0.0001 |       0.0001 |       0.0001 |       0.0000 |       0.0000 |       0.0000 |       0.0000 |       0.0000 |       0.0000 |       0.0000 |       0.0000 |       0.0000 |       0.0000 |       0.0000 |       0.0000 |       0.0000 |       0.0000 |       0.0000 |       0.0000 |       0.0000 |       0.0000 |       0.0000 |       0.0000 |       0.0000 |       0.0000 |       0.0000 |       0.0000 |       0.0000 |       0.0000 |       0.0000 |       0.0000 |       0.0000 |       0.0000 |
il1.wb_rate                                 0.0000 |       0.0000 |       0.0000 |       0.0000 |       0.0000 |       0.0000 |       0.0000 |       0.0000 |       0.0000 |       0.0000 |       0.0000 |       0.0000 |       0.0000 |       0.0000 |       0.0000 |       0.0000 |       0.0000 |       0.0000 |       0.0000 |       0.0000 |       0.0000 |       0.0000 |       0.0000 |       0.0000 |       0.0000 |       0.0000 |       0.0000 |       0.0000 |       0.0000 |       0.0000 |       0.0000 |       0.0000 |       0.0000 |       0.0000 |       0.0000 |       0.0000 |       0.0000 |       0.0000 |       0.0000 |       0.0000 |       0.0000 |       0.0000 |       0.0000 |       0.0000 |
il1.inv_rate                                0.0000 |       0.0000 |       0.0000 |       0.0000 |       0.0000 |       0.0000 |       0.0000 |       0.0000 |       0.0000 |       0.0000 |       0.0000 |       0.0000 |       0.0000 |       0.0000 |       0.0000 |       0.0000 |       0.0000 |       0.0000 |       0.0000 |       0.0000 |       0.0000 |       0.0000 |       0.0000 |       0.0000 |       0.0000 |       0.0000 |       0.0000 |       0.0000 |       0.0000 |       0.0000 |       0.0000 |       0.0000 |       0.0000 |       0.0000 |       0.0000 |       0.0000 |       0.0000 |       0.0000 |       0.0000 |       0.0000 |       0.0000 |       0.0000 |       0.0000 |       0.0000 |
dl1.accesses                                195632 |       195632 |       195632 |       195632 |       400822 |       400822 |       400822 |       400822 |       823537 |       823537 |       823537 |       823537 |      1705815 |      1705815 |      1705815 |      1705815 |      3545259 |      3545259 |      3545259 |      3545259 |      7406385 |      7406385 |      7406385 |      7406385 |     15267141 |     15267141 |     15267141 |     15267141 |     31843141 |     31843141 |     31843141 |     31843141 |     65608015 |     65608015 |     65608015 |     65608015 |    135799745 |    135799745 |    135799745 |    135799745 |    279319226 |    279319226 |    279319226 |    279319226 |
dl1.hits                                    193281 |       193281 |       193322 |       193322 |       395080 |       395080 |       395366 |       395366 |       810699 |       810699 |       811184 |       811184 |      1677200 |      1677200 |      1678477 |      1678477 |      3477950 |      3477950 |      3481045 |      3481045 |      7245206 |      7245206 |      7251366 |      7251366 |     14919864 |     14919864 |     14933667 |     14933667 |     31039709 |     31039709 |     31067562 |     31067562 |     63897270 |     63897270 |     63956771 |     63956771 |    132039501 |    132039501 |    132165934 |    132165934 |    271361724 |    271361724 |    271629854 |    271629854 |
dl1.misses                                    2351 |         2351 |         2310 |         2310 |         5742 |         5742 |         5456 |         5456 |        12838 |        12838 |        12353 |        12353 |        28615 |        28615 |        27338 |        27338 |        67309 |        67309 |        64214 |        64214 |       161179 |       161179 |       155019 |       155019 |       347277 |       347277 |       333474 |       333474 |       803432 |       803432 |       775579 |       775579 |      1710745 |      1710745 |      1651244 |      1651244 |      3760244 |      3760244 |      3633811 |      3633811 |      7957502 |      7957502 |      7689372 |      7689372 |
dl1.replacements                              2095 |         2095 |         2054 |         2054 |         5486 |         5486 |         5200 |         5200 |        12582 |        12582 |        12097 |        12097 |        28359 |        28359 |        27082 |        27082 |        67053 |        67053 |        63958 |        63958 |       160923 |       160923 |       154763 |       154763 |       347021 |       347021 |       333218 |       333218 |       803176 |       803176 |       775323 |       775323 |      1710489 |      1710489 |      1650988 |      1650988 |      3759988 |      3759988 |      3633555 |      3633555 |      7957246 |      7957246 |      7689116 |      7689116 |
dl1.writebacks                                1976 |         1976 |         1908 |         1908 |         4958 |         4958 |         4742 |         4742 |        11823 |        11823 |        11521 |        11521 |        26997 |        26997 |        26101 |        26101 |        63107 |        63107 |        60969 |        60969 |       145589 |       145589 |       141653 |       141653 |       322812 |       322812 |       314009 |       314009 |       725180 |       725180 |       708149 |       708149 |      1580182 |      1580182 |      1544020 |      1544020 |      3451699 |      3451699 |      3376566 |      3376566 |      7395891 |      7395891 |      7238593 |      7238593 |
dl1.invalidations                                0 |            0 |            0 |            0 |            0 |            0 |            0 |            0 |            0 |            0 |            0 |            0 |            0 |            0 |            0 |            0 |            0 |            0 |            0 |            0 |            0 |            0 |            0 |            0 |            0 |            0 |            0 |            0 |            0 |            0 |            0 |            0 |            0 |            0 |            0 |            0 |            0 |            0 |            0 |            0 |            0 |            0 |            0 |            0 |
dl1.miss_rate                               0.0120 |       0.0120 |       0.0118 |       0.0118 |       0.0143 |       0.0143 |       0.0136 |       0.0136 |       0.0156 |       0.0156 |       0.0150 |       0.0150 |       0.0168 |       0.0168 |       0.0160 |       0.0160 |       0.0190 |       0.0190 |       0.0181 |       0.0181 |       0.0218 |       0.0218 |       0.0209 |       0.0209 |       0.0227 |       0.0227 |       0.0218 |       0.0218 |       0.0252 |       0.0252 |       0.0244 |       0.0244 |       0.0261 |       0.0261 |       0.0252 |       0.0252 |       0.0277 |       0.0277 |       0.0268 |       0.0268 |       0.0285 |       0.0285 |       0.0275 |       0.0275 |
dl1.repl_rate                               0.0107 |       0.0107 |       0.0105 |       0.0105 |       0.0137 |       0.0137 |       0.0130 |       0.0130 |       0.0153 |       0.0153 |       0.0147 |       0.0147 |       0.0166 |       0.0166 |       0.0159 |       0.0159 |       0.0189 |       0.0189 |       0.0180 |       0.0180 |       0.0217 |       0.0217 |       0.0209 |       0.0209 |       0.0227 |       0.0227 |       0.0218 |       0.0218 |       0.0252 |       0.0252 |       0.0243 |       0.0243 |       0.0261 |       0.0261 |       0.0252 |       0.0252 |       0.0277 |       0.0277 |       0.0268 |       0.0268 |       0.0285 |       0.0285 |       0.0275 |       0.0275 |
dl1.wb_rate                                 0.0101 |       0.0101 |       0.0098 |       0.0098 |       0.0124 |       0.0124 |       0.0118 |       0.0118 |       0.0144 |       0.0144 |       0.0140 |       0.0140 |       0.0158 |       0.0158 |       0.0153 |       0.0153 |       0.0178 |       0.0178 |       0.0172 |       0.0172 |       0.0197 |       0.0197 |       0.0191 |       0.0191 |       0.0211 |       0.0211 |       0.0206 |       0.0206 |       0.0228 |       0.0228 |       0.0222 |       0.0222 |       0.0241 |       0.0241 |       0.0235 |       0.0235 |       0.0254 |       0.0254 |       0.0249 |       0.0249 |       0.0265 |       0.0265 |       0.0259 |       0.0259 |
dl1.inv_rate                                0.0000 |       0.0000 |       0.0000 |       0.0000 |       0.0000 |       0.0000 |       0.0000 |       0.0000 |       0.0000 |       0.0000 |       0.0000 |       0.0000 |       0.0000 |       0.0000 |       0.0000 |       0.0000 |       0.0000 |       0.0000 |       0.0000 |       0.0000 |       0.0000 |       0.0000 |       0.0000 |       0.0000 |       0.0000 |       0.0000 |       0.0000 |       0.0000 |       0.0000 |       0.0000 |       0.0000 |       0.0000 |       0.0000 |       0.0000 |       0.0000 |       0.0000 |       0.0000 |       0.0000 |       0.0000 |       0.0000 |       0.0000 |       0.0000 |       0.0000 |       0.0000 |
dl2.accesses                                  4851 |         4851 |         4659 |         4659 |        11225 |        11225 |        10640 |        10640 |        25202 |        25202 |        24328 |        24328 |        56153 |        56153 |        53894 |        53894 |       130957 |       130957 |       125638 |       125638 |       307309 |       307309 |       297127 |       297127 |       670630 |       670630 |       647938 |       647938 |      1529153 |      1529153 |      1484183 |      1484183 |      3291468 |      3291468 |      3195719 |      3195719 |      7212484 |      7212484 |      7010832 |      7010832 |     15353934 |     15353934 |     14928420 |     14928420 |
dl2.hits                                      3449 |         3449 |         3283 |         3283 |         9310 |         9310 |         8751 |         8751 |        22261 |        22261 |        21412 |        21412 |        51162 |        51162 |        48928 |        48928 |       121870 |       121870 |       116576 |       116576 |       290030 |       290030 |       279873 |       279873 |       636967 |       636967 |       614300 |       614300 |      1462721 |      1461971 |      1417776 |      1362010 |      3158762 |      2946835 |      2947212 |      2796471 |      6525557 |      6230674 |      6252686 |      5971862 |     13433994 |     12836563 |     12897164 |     12224180 |
dl2.misses                                    1402 |         1402 |         1376 |         1376 |         1915 |         1915 |         1889 |         1889 |         2941 |         2941 |         2916 |         2916 |         4991 |         4991 |         4966 |         4966 |         9087 |         9087 |         9062 |         9062 |        17279 |        17279 |        17254 |        17254 |        33663 |        33663 |        33638 |        33638 |        66432 |        67182 |        66407 |       122173 |       132706 |       344633 |       248507 |       399248 |       686927 |       981810 |       758146 |      1038970 |      1919940 |      2517371 |      2031256 |      2704240 |
dl2.replacements                               265 |          265 |            0 |            0 |          267 |          267 |            0 |            0 |          267 |          267 |            0 |            0 |          268 |          268 |            0 |            0 |          268 |          268 |            0 |            0 |          268 |          268 |            0 |            0 |          268 |          268 |            0 |            0 |          268 |         1646 |            0 |        56637 |         1634 |       279097 |       117435 |       333712 |       555855 |       916274 |       627074 |       973434 |      1788868 |      2451835 |      1900184 |      2638704 |
dl2.writebacks                                 172 |          172 |            0 |            0 |          174 |          174 |            0 |            0 |          173 |          173 |            0 |            0 |          173 |          173 |            0 |            0 |          173 |          173 |            0 |            0 |          173 |          173 |            0 |            0 |          173 |          173 |            0 |            0 |          173 |         1357 |            0 |        56370 |         1347 |       275114 |       117168 |       326059 |       551563 |       904354 |       618738 |       960382 |      1775745 |      2425366 |      1885167 |      2600200 |
dl2.invalidations                                0 |            0 |            0 |            0 |            0 |            0 |            0 |            0 |            0 |            0 |            0 |            0 |            0 |            0 |            0 |            0 |            0 |            0 |            0 |            0 |            0 |            0 |            0 |            0 |            0 |            0 |            0 |            0 |            0 |            0 |            0 |            0 |            0 |            0 |            0 |            0 |            0 |            0 |            0 |            0 |            0 |            0 |            0 |            0 |
dl2.miss_rate                               0.2890 |       0.2890 |       0.2953 |       0.2953 |       0.1706 |       0.1706 |       0.1775 |       0.1775 |       0.1167 |       0.1167 |       0.1199 |       0.1199 |       0.0889 |       0.0889 |       0.0921 |       0.0921 |       0.0694 |       0.0694 |       0.0721 |       0.0721 |       0.0562 |       0.0562 |       0.0581 |       0.0581 |       0.0502 |       0.0502 |       0.0519 |       0.0519 |       0.0434 |       0.0439 |       0.0447 |       0.0823 |       0.0403 |       0.1047 |       0.0778 |       0.1249 |       0.0952 |       0.1361 |       0.1081 |       0.1482 |       0.1250 |       0.1640 |       0.1361 |       0.1811 |
dl2.repl_rate                               0.0546 |       0.0546 |       0.0000 |       0.0000 |       0.0238 |       0.0238 |       0.0000 |       0.0000 |       0.0106 |       0.0106 |       0.0000 |       0.0000 |       0.0048 |       0.0048 |       0.0000 |       0.0000 |       0.0020 |       0.0020 |       0.0000 |       0.0000 |       0.0009 |       0.0009 |       0.0000 |       0.0000 |       0.0004 |       0.0004 |       0.0000 |       0.0000 |       0.0002 |       0.0011 |       0.0000 |       0.0382 |       0.0005 |       0.0848 |       0.0367 |       0.1044 |       0.0771 |       0.1270 |       0.0894 |       0.1388 |       0.1165 |       0.1597 |       0.1273 |       0.1768 |
dl2.wb_rate                                 0.0355 |       0.0355 |       0.0000 |       0.0000 |       0.0155 |       0.0155 |       0.0000 |       0.0000 |       0.0069 |       0.0069 |       0.0000 |       0.0000 |       0.0031 |       0.0031 |       0.0000 |       0.0000 |       0.0013 |       0.0013 |       0.0000 |       0.0000 |       0.0006 |       0.0006 |       0.0000 |       0.0000 |       0.0003 |       0.0003 |       0.0000 |       0.0000 |       0.0001 |       0.0009 |       0.0000 |       0.0380 |       0.0004 |       0.0836 |       0.0367 |       0.1020 |       0.0765 |       0.1254 |       0.0883 |       0.1370 |       0.1157 |       0.1580 |       0.1263 |       0.1742 |
dl2.inv_rate                                0.0000 |       0.0000 |       0.0000 |       0.0000 |       0.0000 |       0.0000 |       0.0000 |       0.0000 |       0.0000 |       0.0000 |       0.0000 |       0.0000 |       0.0000 |       0.0000 |       0.0000 |       0.0000 |       0.0000 |       0.0000 |       0.0000 |       0.0000 |       0.0000 |       0.0000 |       0.0000 |       0.0000 |       0.0000 |       0.0000 |       0.0000 |       0.0000 |       0.0000 |       0.0000 |       0.0000 |       0.0000 |       0.0000 |       0.0000 |       0.0000 |       0.0000 |       0.0000 |       0.0000 |       0.0000 |       0.0000 |       0.0000 |       0.0000 |       0.0000 |       0.0000 |
itlb.accesses                               638167 |       638167 |       638167 |       638167 |      1341610 |      1341610 |      1341610 |      1341610 |      2792153 |      2792153 |      2792153 |      2792153 |      5838451 |      5838451 |      5838451 |      5838451 |     12271407 |     12271407 |     12271407 |     12271407 |     26038063 |     26038063 |     26038063 |     26038063 |     53764877 |     53764877 |     53764877 |     53764877 |    113822941 |    113822941 |    113822941 |    113822941 |    235156636 |    235156636 |    235156636 |    235156636 |    490345058 |    490345058 |    490345058 |    490345058 |   1010958807 |   1010958807 |   1010958807 |   1010958807 |
itlb.hits                                   638160 |       638160 |       638160 |       638160 |      1341603 |      1341603 |      1341603 |      1341603 |      2792146 |      2792146 |      2792146 |      2792146 |      5838444 |      5838444 |      5838444 |      5838444 |     12271400 |     12271400 |     12271400 |     12271400 |     26038056 |     26038056 |     26038056 |     26038056 |     53764870 |     53764870 |     53764870 |     53764870 |    113822934 |    113822934 |    113822934 |    113822934 |    235156629 |    235156629 |    235156629 |    235156629 |    490345051 |    490345051 |    490345051 |    490345051 |   1010958800 |   1010958800 |   1010958800 |   1010958800 |
itlb.misses                                      7 |            7 |            7 |            7 |            7 |            7 |            7 |            7 |            7 |            7 |            7 |            7 |            7 |            7 |            7 |            7 |            7 |            7 |            7 |            7 |            7 |            7 |            7 |            7 |            7 |            7 |            7 |            7 |            7 |            7 |            7 |            7 |            7 |            7 |            7 |            7 |            7 |            7 |            7 |            7 |            7 |            7 |            7 |            7 |
itlb.replacements                                0 |            0 |            0 |            0 |            0 |            0 |            0 |            0 |            0 |            0 |            0 |            0 |            0 |            0 |            0 |            0 |            0 |            0 |            0 |            0 |            0 |            0 |            0 |            0 |            0 |            0 |            0 |            0 |            0 |            0 |            0 |            0 |            0 |            0 |            0 |            0 |            0 |            0 |            0 |            0 |            0 |            0 |            0 |            0 |
itlb.writebacks                                  0 |            0 |            0 |            0 |            0 |            0 |            0 |            0 |            0 |            0 |            0 |            0 |            0 |            0 |            0 |            0 |            0 |            0 |            0 |            0 |            0 |            0 |            0 |            0 |            0 |            0 |            0 |            0 |            0 |            0 |            0 |            0 |            0 |            0 |            0 |            0 |            0 |            0 |            0 |            0 |            0 |            0 |            0 |            0 |
itlb.invalidations                               0 |            0 |            0 |            0 |            0 |            0 |            0 |            0 |            0 |            0 |            0 |            0 |            0 |            0 |            0 |            0 |            0 |            0 |            0 |            0 |            0 |            0 |            0 |            0 |            0 |            0 |            0 |            0 |            0 |            0 |            0 |            0 |            0 |            0 |            0 |            0 |            0 |            0 |            0 |            0 |            0 |            0 |            0 |            0 |
itlb.miss_rate                              0.0000 |       0.0000 |       0.0000 |       0.0000 |       0.0000 |       0.0000 |       0.0000 |       0.0000 |       0.0000 |       0.0000 |       0.0000 |       0.0000 |       0.0000 |       0.0000 |       0.0000 |       0.0000 |       0.0000 |       0.0000 |       0.0000 |       0.0000 |       0.0000 |       0.0000 |       0.0000 |       0.0000 |       0.0000 |       0.0000 |       0.0000 |       0.0000 |       0.0000 |       0.0000 |       0.0000 |       0.0000 |       0.0000 |       0.0000 |       0.0000 |       0.0000 |       0.0000 |       0.0000 |       0.0000 |       0.0000 |       0.0000 |       0.0000 |       0.0000 |       0.0000 |
itlb.repl_rate                              0.0000 |       0.0000 |       0.0000 |       0.0000 |       0.0000 |       0.0000 |       0.0000 |       0.0000 |       0.0000 |       0.0000 |       0.0000 |       0.0000 |       0.0000 |       0.0000 |       0.0000 |       0.0000 |       0.0000 |       0.0000 |       0.0000 |       0.0000 |       0.0000 |       0.0000 |       0.0000 |       0.0000 |       0.0000 |       0.0000 |       0.0000 |       0.0000 |       0.0000 |       0.0000 |       0.0000 |       0.0000 |       0.0000 |       0.0000 |       0.0000 |       0.0000 |       0.0000 |       0.0000 |       0.0000 |       0.0000 |       0.0000 |       0.0000 |       0.0000 |       0.0000 |
itlb.wb_rate                                0.0000 |       0.0000 |       0.0000 |       0.0000 |       0.0000 |       0.0000 |       0.0000 |       0.0000 |       0.0000 |       0.0000 |       0.0000 |       0.0000 |       0.0000 |       0.0000 |       0.0000 |       0.0000 |       0.0000 |       0.0000 |       0.0000 |       0.0000 |       0.0000 |       0.0000 |       0.0000 |       0.0000 |       0.0000 |       0.0000 |       0.0000 |       0.0000 |       0.0000 |       0.0000 |       0.0000 |       0.0000 |       0.0000 |       0.0000 |       0.0000 |       0.0000 |       0.0000 |       0.0000 |       0.0000 |       0.0000 |       0.0000 |       0.0000 |       0.0000 |       0.0000 |
itlb.inv_rate                               0.0000 |       0.0000 |       0.0000 |       0.0000 |       0.0000 |       0.0000 |       0.0000 |       0.0000 |       0.0000 |       0.0000 |       0.0000 |       0.0000 |       0.0000 |       0.0000 |       0.0000 |       0.0000 |       0.0000 |       0.0000 |       0.0000 |       0.0000 |       0.0000 |       0.0000 |       0.0000 |       0.0000 |       0.0000 |       0.0000 |       0.0000 |       0.0000 |       0.0000 |       0.0000 |       0.0000 |       0.0000 |       0.0000 |       0.0000 |       0.0000 |       0.0000 |       0.0000 |       0.0000 |       0.0000 |       0.0000 |       0.0000 |       0.0000 |       0.0000 |       0.0000 |
dtlb.accesses                               195632 |       195632 |       195632 |       195632 |       400822 |       400822 |       400822 |       400822 |       823537 |       823537 |       823537 |       823537 |      1705815 |      1705815 |      1705815 |      1705815 |      3545259 |      3545259 |      3545259 |      3545259 |      7406385 |      7406385 |      7406385 |      7406385 |     15267141 |     15267141 |     15267141 |     15267141 |     31843141 |     31843141 |     31843141 |     31843141 |     65608015 |     65608015 |     65608015 |     65608015 |    135799745 |    135799745 |    135799745 |    135799745 |    279319226 |    279319226 |    279319226 |    279319226 |
dtlb.hits                                   195621 |       195621 |       195621 |       195621 |       400807 |       400807 |       400807 |       400807 |       823514 |       823514 |       823514 |       823514 |      1705776 |      1705776 |      1705776 |      1705776 |      3545188 |      3545188 |      3545188 |      3545188 |      7406225 |      7406225 |      7406225 |      7406225 |     15266388 |     15266388 |     15266388 |     15266388 |     31840866 |     31840866 |     31840866 |     31840866 |     65602444 |     65602444 |     65602444 |     65602444 |    135786186 |    135786186 |    135786186 |    135786186 |    279288557 |    279288557 |    279288557 |    279288557 |
dtlb.misses                                     11 |           11 |           11 |           11 |           15 |           15 |           15 |           15 |           23 |           23 |           23 |           23 |           39 |           39 |           39 |           39 |           71 |           71 |           71 |           71 |          160 |          160 |          160 |          160 |          753 |          753 |          753 |          753 |         2275 |         2275 |         2275 |         2275 |         5571 |         5571 |         5571 |         5571 |        13559 |        13559 |        13559 |        13559 |        30669 |        30669 |        30669 |        30669 |
dtlb.replacements                                0 |            0 |            0 |            0 |            0 |            0 |            0 |            0 |            0 |            0 |            0 |            0 |            0 |            0 |            0 |            0 |            0 |            0 |            0 |            0 |           32 |           32 |           32 |           32 |          625 |          625 |          625 |          625 |         2147 |         2147 |         2147 |         2147 |         5443 |         5443 |         5443 |         5443 |        13431 |        13431 |        13431 |        13431 |        30541 |        30541 |        30541 |        30541 |
dtlb.writebacks                                  0 |            0 |            0 |            0 |            0 |            0 |            0 |            0 |            0 |            0 |            0 |            0 |            0 |            0 |            0 |            0 |            0 |            0 |            0 |            0 |           31 |           31 |           31 |           31 |          624 |          624 |          624 |          624 |         2146 |         2146 |         2146 |         2146 |         5442 |         5442 |         5442 |         5442 |        13430 |        13430 |        13430 |        13430 |        30540 |        30540 |        30540 |        30540 |
dtlb.invalidations                               0 |            0 |            0 |            0 |            0 |            0 |            0 |            0 |            0 |            0 |            0 |            0 |            0 |            0 |            0 |            0 |            0 |            0 |            0 |            0 |            0 |            0 |            0 |            0 |            0 |            0 |            0 |            0 |            0 |            0 |            0 |            0 |            0 |            0 |            0 |            0 |            0 |            0 |            0 |            0 |            0 |            0 |            0 |            0 |
dtlb.miss_rate                              0.0001 |       0.0001 |       0.0001 |       0.0001 |       0.0000 |       0.0000 |       0.0000 |       0.0000 |       0.0000 |       0.0000 |       0.0000 |       0.0000 |       0.0000 |       0.0000 |       0.0000 |       0.0000 |       0.0000 |       0.0000 |       0.0000 |       0.0000 |       0.0000 |       0.0000 |       0.0000 |       0.0000 |       0.0000 |       0.0000 |       0.0000 |       0.0000 |       0.0001 |       0.0001 |       0.0001 |       0.0001 |       0.0001 |       0.0001 |       0.0001 |       0.0001 |       0.0001 |       0.0001 |       0.0001 |       0.0001 |       0.0001 |       0.0001 |       0.0001 |       0.0001 |
dtlb.repl_rate                              0.0000 |       0.0000 |       0.0000 |       0.0000 |       0.0000 |       0.0000 |       0.0000 |       0.0000 |       0.0000 |       0.0000 |       0.0000 |       0.0000 |       0.0000 |       0.0000 |       0.0000 |       0.0000 |       0.0000 |       0.0000 |       0.0000 |       0.0000 |       0.0000 |       0.0000 |       0.0000 |       0.0000 |       0.0000 |       0.0000 |       0.0000 |       0.0000 |       0.0001 |       0.0001 |       0.0001 |       0.0001 |       0.0001 |       0.0001 |       0.0001 |       0.0001 |       0.0001 |       0.0001 |       0.0001 |       0.0001 |       0.0001 |       0.0001 |       0.0001 |       0.0001 |
dtlb.wb_rate                                0.0000 |       0.0000 |       0.0000 |       0.0000 |       0.0000 |       0.0000 |       0.0000 |       0.0000 |       0.0000 |       0.0000 |       0.0000 |       0.0000 |       0.0000 |       0.0000 |       0.0000 |       0.0000 |       0.0000 |       0.0000 |       0.0000 |       0.0000 |       0.0000 |       0.0000 |       0.0000 |       0.0000 |       0.0000 |       0.0000 |       0.0000 |       0.0000 |       0.0001 |       0.0001 |       0.0001 |       0.0001 |       0.0001 |       0.0001 |       0.0001 |       0.0001 |       0.0001 |       0.0001 |       0.0001 |       0.0001 |       0.0001 |       0.0001 |       0.0001 |       0.0001 |
dtlb.inv_rate                               0.0000 |       0.0000 |       0.0000 |       0.0000 |       0.0000 |       0.0000 |       0.0000 |       0.0000 |       0.0000 |       0.0000 |       0.0000 |       0.0000 |       0.0000 |       0.0000 |       0.0000 |       0.0000 |       0.0000 |       0.0000 |       0.0000 |       0.0000 |       0.0000 |       0.0000 |       0.0000 |       0.0000 |       0.0000 |       0.0000 |       0.0000 |       0.0000 |       0.0000 |       0.0000 |       0.0000 |       0.0000 |       0.0000 |       0.0000 |       0.0000 |       0.0000 |       0.0000 |       0.0000 |       0.0000 |       0.0000 |       0.0000 |       0.0000 |       0.0000 |       0.0000 |
ld_text_base                            0x00400000 |   0x00400000 |   0x00400000 |   0x00400000 |   0x00400000 |   0x00400000 |   0x00400000 |   0x00400000 |   0x00400000 |   0x00400000 |   0x00400000 |   0x00400000 |   0x00400000 |   0x00400000 |   0x00400000 |   0x00400000 |   0x00400000 |   0x00400000 |   0x00400000 |   0x00400000 |   0x00400000 |   0x00400000 |   0x00400000 |   0x00400000 |   0x00400000 |   0x00400000 |   0x00400000 |   0x00400000 |   0x00400000 |   0x00400000 |   0x00400000 |   0x00400000 |   0x00400000 |   0x00400000 |   0x00400000 |   0x00400000 |   0x00400000 |   0x00400000 |   0x00400000 |   0x00400000 |   0x00400000 |   0x00400000 |   0x00400000 |   0x00400000 |
ld_text_size                                 28176 |        28176 |        28176 |        28176 |        28208 |        28208 |        28208 |        28208 |        28224 |        28224 |        28224 |        28224 |        28256 |        28256 |        28256 |        28256 |        28256 |        28256 |        28256 |        28256 |        28256 |        28256 |        28256 |        28256 |        28256 |        28256 |        28256 |        28256 |        28256 |        28256 |        28256 |        28256 |        28256 |        28256 |        28256 |        28256 |        28256 |        28256 |        28256 |        28256 |        28256 |        28256 |        28256 |        28256 |
ld_data_base                            0x10000000 |   0x10000000 |   0x10000000 |   0x10000000 |   0x10000000 |   0x10000000 |   0x10000000 |   0x10000000 |   0x10000000 |   0x10000000 |   0x10000000 |   0x10000000 |   0x10000000 |   0x10000000 |   0x10000000 |   0x10000000 |   0x10000000 |   0x10000000 |   0x10000000 |   0x10000000 |   0x10000000 |   0x10000000 |   0x10000000 |   0x10000000 |   0x10000000 |   0x10000000 |   0x10000000 |   0x10000000 |   0x10000000 |   0x10000000 |   0x10000000 |   0x10000000 |   0x10000000 |   0x10000000 |   0x10000000 |   0x10000000 |   0x10000000 |   0x10000000 |   0x10000000 |   0x10000000 |   0x10000000 |   0x10000000 |   0x10000000 |   0x10000000 |
ld_data_size                                  4096 |         4096 |         4096 |         4096 |         4096 |         4096 |         4096 |         4096 |         4096 |         4096 |         4096 |         4096 |         4096 |         4096 |         4096 |         4096 |         4096 |         4096 |         4096 |         4096 |         4096 |         4096 |         4096 |         4096 |         4096 |         4096 |         4096 |         4096 |         4096 |         4096 |         4096 |         4096 |         4096 |         4096 |         4096 |         4096 |         4096 |         4096 |         4096 |         4096 |         4096 |         4096 |         4096 |         4096 |
ld_stack_base                           0x7fffc000 |   0x7fffc000 |   0x7fffc000 |   0x7fffc000 |   0x7fffc000 |   0x7fffc000 |   0x7fffc000 |   0x7fffc000 |   0x7fffc000 |   0x7fffc000 |   0x7fffc000 |   0x7fffc000 |   0x7fffc000 |   0x7fffc000 |   0x7fffc000 |   0x7fffc000 |   0x7fffc000 |   0x7fffc000 |   0x7fffc000 |   0x7fffc000 |   0x7fffc000 |   0x7fffc000 |   0x7fffc000 |   0x7fffc000 |   0x7fffc000 |   0x7fffc000 |   0x7fffc000 |   0x7fffc000 |   0x7fffc000 |   0x7fffc000 |   0x7fffc000 |   0x7fffc000 |   0x7fffc000 |   0x7fffc000 |   0x7fffc000 |   0x7fffc000 |   0x7fffc000 |   0x7fffc000 |   0x7fffc000 |   0x7fffc000 |   0x7fffc000 |   0x7fffc000 |   0x7fffc000 |   0x7fffc000 |
ld_stack_size                                16384 |        16384 |        16384 |        16384 |        16384 |        16384 |        16384 |        16384 |        16384 |        16384 |        16384 |        16384 |        16384 |        16384 |        16384 |        16384 |        16384 |        16384 |        16384 |        16384 |        16384 |        16384 |        16384 |        16384 |        16384 |        16384 |        16384 |        16384 |        16384 |        16384 |        16384 |        16384 |        16384 |        16384 |        16384 |        16384 |        16384 |        16384 |        16384 |        16384 |        16384 |        16384 |        16384 |        16384 |
ld_prog_entry                           0x00400140 |   0x00400140 |   0x00400140 |   0x00400140 |   0x00400140 |   0x00400140 |   0x00400140 |   0x00400140 |   0x00400140 |   0x00400140 |   0x00400140 |   0x00400140 |   0x00400140 |   0x00400140 |   0x00400140 |   0x00400140 |   0x00400140 |   0x00400140 |   0x00400140 |   0x00400140 |   0x00400140 |   0x00400140 |   0x00400140 |   0x00400140 |   0x00400140 |   0x00400140 |   0x00400140 |   0x00400140 |   0x00400140 |   0x00400140 |   0x00400140 |   0x00400140 |   0x00400140 |   0x00400140 |   0x00400140 |   0x00400140 |   0x00400140 |   0x00400140 |   0x00400140 |   0x00400140 |   0x00400140 |   0x00400140 |   0x00400140 |   0x00400140 |
ld_environ_base                         0x7fff8000 |   0x7fff8000 |   0x7fff8000 |   0x7fff8000 |   0x7fff8000 |   0x7fff8000 |   0x7fff8000 |   0x7fff8000 |   0x7fff8000 |   0x7fff8000 |   0x7fff8000 |   0x7fff8000 |   0x7fff8000 |   0x7fff8000 |   0x7fff8000 |   0x7fff8000 |   0x7fff8000 |   0x7fff8000 |   0x7fff8000 |   0x7fff8000 |   0x7fff8000 |   0x7fff8000 |   0x7fff8000 |   0x7fff8000 |   0x7fff8000 |   0x7fff8000 |   0x7fff8000 |   0x7fff8000 |   0x7fff8000 |   0x7fff8000 |   0x7fff8000 |   0x7fff8000 |   0x7fff8000 |   0x7fff8000 |   0x7fff8000 |   0x7fff8000 |   0x7fff8000 |   0x7fff8000 |   0x7fff8000 |   0x7fff8000 |   0x7fff8000 |   0x7fff8000 |   0x7fff8000 |   0x7fff8000 |
ld_target_big_endian                             0 |            0 |            0 |            0 |            0 |            0 |            0 |            0 |            0 |            0 |            0 |            0 |            0 |            0 |            0 |            0 |            0 |            0 |            0 |            0 |            0 |            0 |            0 |            0 |            0 |            0 |            0 |            0 |            0 |            0 |            0 |            0 |            0 |            0 |            0 |            0 |            0 |            0 |            0 |            0 |            0 |            0 |            0 |            0 |
mem.page_count                                  18 |           18 |           18 |           18 |           22 |           22 |           22 |           22 |           30 |           30 |           30 |           30 |           46 |           46 |           46 |           46 |           78 |           78 |           78 |           78 |          142 |          142 |          142 |          142 |          270 |          270 |          270 |          270 |          526 |          526 |          526 |          526 |         1038 |         1038 |         1038 |         1038 |         2062 |         2062 |         2062 |         2062 |         4110 |         4110 |         4110 |         4110 |
mem.page_mem                                   72k |          72k |          72k |          72k |          88k |          88k |          88k |          88k |         120k |         120k |         120k |         120k |         184k |         184k |         184k |         184k |         312k |         312k |         312k |         312k |         568k |         568k |         568k |         568k |        1080k |        1080k |        1080k |        1080k |        2104k |        2104k |        2104k |        2104k |        4152k |        4152k |        4152k |        4152k |        8248k |        8248k |        8248k |        8248k |       16440k |       16440k |       16440k |       16440k |
mem.ptab_misses                                 18 |           18 |           18 |           18 |           22 |           22 |           22 |           22 |           30 |           30 |           30 |           30 |           46 |           46 |           46 |           46 |           78 |           78 |           78 |           78 |          142 |          142 |          142 |          142 |          270 |          270 |          270 |          270 |          526 |          526 |          526 |          526 |         1038 |         1038 |         1038 |         1038 |         2062 |         2062 |         2062 |         2062 |         4110 |         4110 |         4110 |         4110 |
mem.ptab_accesses                          3118194 |      3118194 |      3118194 |      3118194 |      6342538 |      6342538 |      6342538 |      6342538 |     12990236 |     12990236 |     12990236 |     12990236 |     26940176 |     26940176 |     26940176 |     26940176 |     56350888 |     56350888 |     56350888 |     56350888 |    119139764 |    119139764 |    119139764 |    119139764 |    245768532 |    245768532 |    245768532 |    245768532 |    519152788 |    519152788 |    519152788 |    519152788 |   1072017316 |   1072017316 |   1072017316 |   1072017316 |   2233154464 |   2233154464 |   2233154464 |   2233154464 |   4602648422 |   4602648422 |   4602648422 |   4602648422 |
mem.ptab_miss_rate                          0.0000 |       0.0000 |       0.0000 |       0.0000 |       0.0000 |       0.0000 |       0.0000 |       0.0000 |       0.0000 |       0.0000 |       0.0000 |       0.0000 |       0.0000 |       0.0000 |       0.0000 |       0.0000 |       0.0000 |       0.0000 |       0.0000 |       0.0000 |       0.0000 |       0.0000 |       0.0000 |       0.0000 |       0.0000 |       0.0000 |       0.0000 |       0.0000 |       0.0000 |       0.0000 |       0.0000 |       0.0000 |       0.0000 |       0.0000 |       0.0000 |       0.0000 |       0.0000 |       0.0000 |       0.0000 |       0.0000 |       0.0000 |       0.0000 |       0.0000 |       0.0000 |
-------------------------------------------------------------------------------------------------
sim-bpred                                     4096 |         4096 |         4096 |         4096 |         4096 |         4096 |         4096 |         8192 |         8192 |         8192 |         8192 |         8192 |         8192 |         8192 |        16384 |        16384 |        16384 |        16384 |        16384 |        16384 |        16384 |        32768 |        32768 |        32768 |        32768 |        32768 |        32768 |        32768 |        65536 |        65536 |        65536 |        65536 |        65536 |        65536 |        65536 |       131072 |       131072 |       131072 |       131072 |       131072 |       131072 |       131072 |       262144 |       262144 |       262144 |       262144 |       262144 |       262144 |       262144 |       524288 |       524288 |       524288 |       524288 |       524288 |       524288 |       524288 |      1048576 |      1048576 |      1048576 |      1048576 |      1048576 |      1048576 |      1048576 |      2097152 |      2097152 |      2097152 |      2097152 |      2097152 |      2097152 |      2097152 |      4194304 |      4194304 |      4194304 |      4194304 |      4194304 |      4194304 |      4194304 |
-bpred bimod -bpred:bimod 512
-bpred bimod -bpred:bimod 1024
-bpred bimod -bpred:bimod 2048
-bpred 2lev -bpred:2lev 1 512 10 1
-bpred 2lev -bpred:2lev 1 1024 10 1
-bpred 2lev -bpred:2lev 1 2048 10 1
-bpred 2lev -bpred:2lev 1 4096 10 1
-------------------------------------------------------------------------------------------------
sim_num_insn                                638167 |       638167 |       638167 |       638167 |       638167 |       638167 |       638167 |      1341610 |      1341610 |      1341610 |      1341610 |      1341610 |      1341610 |      1341610 |      2792153 |      2792153 |      2792153 |      2792153 |      2792153 |      2792153 |      2792153 |      5838451 |      5838451 |      5838451 |      5838451 |      5838451 |      5838451 |      5838451 |     12271407 |     12271407 |     12271407 |     12271407 |     12271407 |     12271407 |     12271407 |     26038063 |     26038063 |     26038063 |     26038063 |     26038063 |     26038063 |     26038063 |     53764877 |     53764877 |     53764877 |     53764877 |     53764877 |     53764877 |     53764877 |    113822941 |    113822941 |    113822941 |    113822941 |    113822941 |    113822941 |    113822941 |    235156636 |    235156636 |    235156636 |    235156636 |    235156636 |    235156636 |    235156636 |    490345058 |    490345058 |    490345058 |    490345058 |    490345058 |    490345058 |    490345058 |   1010958807 |   1010958807 |   1010958807 |   1010958807 |   1010958807 |   1010958807 |   1010958807 |
sim_num_refs                                195562 |       195562 |       195562 |       195562 |       195562 |       195562 |       195562 |       400752 |       400752 |       400752 |       400752 |       400752 |       400752 |       400752 |       823467 |       823467 |       823467 |       823467 |       823467 |       823467 |       823467 |      1705745 |      1705745 |      1705745 |      1705745 |      1705745 |      1705745 |      1705745 |      3545189 |      3545189 |      3545189 |      3545189 |      3545189 |      3545189 |      3545189 |      7406315 |      7406315 |      7406315 |      7406315 |      7406315 |      7406315 |      7406315 |     15267071 |     15267071 |     15267071 |     15267071 |     15267071 |     15267071 |     15267071 |     31843071 |     31843071 |     31843071 |     31843071 |     31843071 |     31843071 |     31843071 |     65607945 |     65607945 |     65607945 |     65607945 |     65607945 |     65607945 |     65607945 |    135799675 |    135799675 |    135799675 |    135799675 |    135799675 |    135799675 |    135799675 |    279319156 |    279319156 |    279319156 |    279319156 |    279319156 |    279319156 |    279319156 |
sim_elapsed_time                                 1 |            1 |            1 |            1 |            1 |            1 |            1 |            1 |            1 |            1 |            1 |            1 |            1 |            1 |            1 |            1 |            1 |            1 |            1 |            1 |            1 |            1 |            1 |            1 |            1 |            1 |            1 |            1 |            1 |            2 |            1 |            2 |            1 |            2 |            1 |            3 |            4 |            3 |            3 |            3 |            3 |            4 |            7 |            6 |            7 |            7 |            6 |            7 |            6 |           14 |           14 |           13 |           14 |           13 |           14 |           14 |           28 |           28 |           29 |           29 |           28 |           29 |           29 |           59 |           59 |           60 |           60 |           60 |           60 |           60 |          121 |          122 |          122 |          124 |          124 |          124 |          122 |
sim_inst_rate                          638167.0000 |  638167.0000 |  638167.0000 |  638167.0000 |  638167.0000 |  638167.0000 |  638167.0000 | 1341610.0000 | 1341610.0000 | 1341610.0000 | 1341610.0000 | 1341610.0000 | 1341610.0000 | 1341610.0000 | 2792153.0000 | 2792153.0000 | 2792153.0000 | 2792153.0000 | 2792153.0000 | 2792153.0000 | 2792153.0000 | 5838451.0000 | 5838451.0000 | 5838451.0000 | 5838451.0000 | 5838451.0000 | 5838451.0000 | 5838451.0000 |12271407.0000 | 6135703.5000 |12271407.0000 | 6135703.5000 |12271407.0000 | 6135703.5000 |12271407.0000 | 8679354.3333 | 6509515.7500 | 8679354.3333 | 8679354.3333 | 8679354.3333 | 8679354.3333 | 6509515.7500 | 7680696.7143 | 8960812.8333 | 7680696.7143 | 7680696.7143 | 8960812.8333 | 7680696.7143 | 8960812.8333 | 8130210.0714 | 8130210.0714 | 8755610.8462 | 8130210.0714 | 8755610.8462 | 8130210.0714 | 8130210.0714 | 8398451.2857 | 8398451.2857 | 8108849.5172 | 8108849.5172 | 8398451.2857 | 8108849.5172 | 8108849.5172 | 8310933.1864 | 8310933.1864 | 8172417.6333 | 8172417.6333 | 8172417.6333 | 8172417.6333 | 8172417.6333 | 8355031.4628 | 8286547.5984 | 8286547.5984 | 8152893.6048 | 8152893.6048 | 8152893.6048 | 8286547.5984 |
sim_num_branches                            111632 |       111632 |       111632 |       111632 |       111632 |       111632 |       111632 |       234872 |       234872 |       234872 |       234872 |       234872 |       234872 |       234872 |       490284 |       490284 |       490284 |       490284 |       490284 |       490284 |       490284 |      1026290 |      1026290 |      1026290 |      1026290 |      1026290 |      1026290 |      1026290 |      2159289 |      2159289 |      2159289 |      2159289 |      2159289 |      2159289 |      2159289 |      4586235 |      4586235 |      4586235 |      4586235 |      4586235 |      4586235 |      4586235 |      9494453 |      9494453 |      9494453 |      9494453 |      9494453 |      9494453 |      9494453 |     20071849 |     20071849 |     20071849 |     20071849 |     20071849 |     20071849 |     20071849 |     41539147 |     41539147 |     41539147 |     41539147 |     41539147 |     41539147 |     41539147 |     86680588 |     86680588 |     86680588 |     86680588 |     86680588 |     86680588 |     86680588 |    178912340 |    178912340 |    178912340 |    178912340 |    178912340 |    178912340 |    178912340 |
sim_IPB                                     5.7167 |       5.7167 |       5.7167 |       5.7167 |       5.7167 |       5.7167 |       5.7167 |       5.7121 |       5.7121 |       5.7121 |       5.7121 |       5.7121 |       5.7121 |       5.7121 |       5.6950 |       5.6950 |       5.6950 |       5.6950 |       5.6950 |       5.6950 |       5.6950 |       5.6889 |       5.6889 |       5.6889 |       5.6889 |       5.6889 |       5.6889 |       5.6889 |       5.6831 |       5.6831 |       5.6831 |       5.6831 |       5.6831 |       5.6831 |       5.6831 |       5.6774 |       5.6774 |       5.6774 |       5.6774 |       5.6774 |       5.6774 |       5.6774 |       5.6628 |       5.6628 |       5.6628 |       5.6628 |       5.6628 |       5.6628 |       5.6628 |       5.6708 |       5.6708 |       5.6708 |       5.6708 |       5.6708 |       5.6708 |       5.6708 |       5.6611 |       5.6611 |       5.6611 |       5.6611 |       5.6611 |       5.6611 |       5.6611 |       5.6569 |       5.6569 |       5.6569 |       5.6569 |       5.6569 |       5.6569 |       5.6569 |       5.6506 |       5.6506 |       5.6506 |       5.6506 |       5.6506 |       5.6506 |       5.6506 |
bpred_bimod.lookups                         111632 |       111632 |       111632 |xxxxxxxxxxxxx |xxxxxxxxxxxxx |xxxxxxxxxxxxx |xxxxxxxxxxxxx |       234872 |       234872 |       234872 |xxxxxxxxxxxxx |xxxxxxxxxxxxx |xxxxxxxxxxxxx |xxxxxxxxxxxxx |       490284 |       490284 |       490284 |xxxxxxxxxxxxx |xxxxxxxxxxxxx |xxxxxxxxxxxxx |xxxxxxxxxxxxx |      1026290 |      1026290 |      1026290 |xxxxxxxxxxxxx |xxxxxxxxxxxxx |xxxxxxxxxxxxx |xxxxxxxxxxxxx |      2159289 |      2159289 |      2159289 |xxxxxxxxxxxxx |xxxxxxxxxxxxx |xxxxxxxxxxxxx |xxxxxxxxxxxxx |      4586235 |      4586235 |      4586235 |xxxxxxxxxxxxx |xxxxxxxxxxxxx |xxxxxxxxxxxxx |xxxxxxxxxxxxx |      9494453 |      9494453 |      9494453 |xxxxxxxxxxxxx |xxxxxxxxxxxxx |xxxxxxxxxxxxx |xxxxxxxxxxxxx |     20071849 |     20071849 |     20071849 |xxxxxxxxxxxxx |xxxxxxxxxxxxx |xxxxxxxxxxxxx |xxxxxxxxxxxxx |     41539147 |     41539147 |     41539147 |xxxxxxxxxxxxx |xxxxxxxxxxxxx |xxxxxxxxxxxxx |xxxxxxxxxxxxx |     86680588 |     86680588 |     86680588 |xxxxxxxxxxxxx |xxxxxxxxxxxxx |xxxxxxxxxxxxx |xxxxxxxxxxxxx |    178912340 |    178912340 |    178912340 |
bpred_bimod.updates                         111632 |       111632 |       111632 |xxxxxxxxxxxxx |xxxxxxxxxxxxx |xxxxxxxxxxxxx |xxxxxxxxxxxxx |       234872 |       234872 |       234872 |xxxxxxxxxxxxx |xxxxxxxxxxxxx |xxxxxxxxxxxxx |xxxxxxxxxxxxx |       490284 |       490284 |       490284 |xxxxxxxxxxxxx |xxxxxxxxxxxxx |xxxxxxxxxxxxx |xxxxxxxxxxxxx |      1026290 |      1026290 |      1026290 |xxxxxxxxxxxxx |xxxxxxxxxxxxx |xxxxxxxxxxxxx |xxxxxxxxxxxxx |      2159289 |      2159289 |      2159289 |xxxxxxxxxxxxx |xxxxxxxxxxxxx |xxxxxxxxxxxxx |xxxxxxxxxxxxx |      4586235 |      4586235 |      4586235 |xxxxxxxxxxxxx |xxxxxxxxxxxxx |xxxxxxxxxxxxx |xxxxxxxxxxxxx |      9494453 |      9494453 |      9494453 |xxxxxxxxxxxxx |xxxxxxxxxxxxx |xxxxxxxxxxxxx |xxxxxxxxxxxxx |     20071849 |     20071849 |     20071849 |xxxxxxxxxxxxx |xxxxxxxxxxxxx |xxxxxxxxxxxxx |xxxxxxxxxxxxx |     41539147 |     41539147 |     41539147 |xxxxxxxxxxxxx |xxxxxxxxxxxxx |xxxxxxxxxxxxx |xxxxxxxxxxxxx |     86680588 |     86680588 |     86680588 |xxxxxxxxxxxxx |xxxxxxxxxxxxx |xxxxxxxxxxxxx |xxxxxxxxxxxxx |    178912340 |    178912340 |    178912340 |
bpred_bimod.addr_hits                        87454 |        87457 |        87461 |xxxxxxxxxxxxx |xxxxxxxxxxxxx |xxxxxxxxxxxxx |xxxxxxxxxxxxx |       183929 |       183928 |       183933 |xxxxxxxxxxxxx |xxxxxxxxxxxxx |xxxxxxxxxxxxx |xxxxxxxxxxxxx |       383276 |       383275 |       383280 |xxxxxxxxxxxxx |xxxxxxxxxxxxx |xxxxxxxxxxxxx |xxxxxxxxxxxxx |       794179 |       794181 |       794186 |xxxxxxxxxxxxx |xxxxxxxxxxxxx |xxxxxxxxxxxxx |xxxxxxxxxxxxx |      1667390 |      1667391 |      1667396 |xxxxxxxxxxxxx |xxxxxxxxxxxxx |xxxxxxxxxxxxx |xxxxxxxxxxxxx |      3560417 |      3560417 |      3560422 |xxxxxxxxxxxxx |xxxxxxxxxxxxx |xxxxxxxxxxxxx |xxxxxxxxxxxxx |      7306153 |      7306156 |      7306161 |xxxxxxxxxxxxx |xxxxxxxxxxxxx |xxxxxxxxxxxxx |xxxxxxxxxxxxx |     15519975 |     15519976 |     15519980 |xxxxxxxxxxxxx |xxxxxxxxxxxxx |xxxxxxxxxxxxx |xxxxxxxxxxxxx |     31928496 |     31928497 |     31928501 |xxxxxxxxxxxxx |xxxxxxxxxxxxx |xxxxxxxxxxxxx |xxxxxxxxxxxxx |     66596308 |     66596308 |     66596313 |xxxxxxxxxxxxx |xxxxxxxxxxxxx |xxxxxxxxxxxxx |xxxxxxxxxxxxx |    136449933 |    136449934 |    136449938 |
bpred_bimod.dir_hits                         87577 |        87578 |        87580 |xxxxxxxxxxxxx |xxxxxxxxxxxxx |xxxxxxxxxxxxx |xxxxxxxxxxxxx |       184051 |       184048 |       184052 |xxxxxxxxxxxxx |xxxxxxxxxxxxx |xxxxxxxxxxxxx |xxxxxxxxxxxxx |       383400 |       383397 |       383401 |xxxxxxxxxxxxx |xxxxxxxxxxxxx |xxxxxxxxxxxxx |xxxxxxxxxxxxx |       794303 |       794303 |       794307 |xxxxxxxxxxxxx |xxxxxxxxxxxxx |xxxxxxxxxxxxx |xxxxxxxxxxxxx |      1667516 |      1667515 |      1667519 |xxxxxxxxxxxxx |xxxxxxxxxxxxx |xxxxxxxxxxxxx |xxxxxxxxxxxxx |      3560540 |      3560537 |      3560541 |xxxxxxxxxxxxx |xxxxxxxxxxxxx |xxxxxxxxxxxxx |xxxxxxxxxxxxx |      7306274 |      7306275 |      7306279 |xxxxxxxxxxxxx |xxxxxxxxxxxxx |xxxxxxxxxxxxx |xxxxxxxxxxxxx |     15520099 |     15520098 |     15520101 |xxxxxxxxxxxxx |xxxxxxxxxxxxx |xxxxxxxxxxxxx |xxxxxxxxxxxxx |     31928620 |     31928619 |     31928622 |xxxxxxxxxxxxx |xxxxxxxxxxxxx |xxxxxxxxxxxxx |xxxxxxxxxxxxx |     66596432 |     66596429 |     66596433 |xxxxxxxxxxxxx |xxxxxxxxxxxxx |xxxxxxxxxxxxx |xxxxxxxxxxxxx |    136450060 |    136450059 |    136450062 |
bpred_bimod.misses                           24055 |        24054 |        24052 |xxxxxxxxxxxxx |xxxxxxxxxxxxx |xxxxxxxxxxxxx |xxxxxxxxxxxxx |        50821 |        50824 |        50820 |xxxxxxxxxxxxx |xxxxxxxxxxxxx |xxxxxxxxxxxxx |xxxxxxxxxxxxx |       106884 |       106887 |       106883 |xxxxxxxxxxxxx |xxxxxxxxxxxxx |xxxxxxxxxxxxx |xxxxxxxxxxxxx |       231987 |       231987 |       231983 |xxxxxxxxxxxxx |xxxxxxxxxxxxx |xxxxxxxxxxxxx |xxxxxxxxxxxxx |       491773 |       491774 |       491770 |xxxxxxxxxxxxx |xxxxxxxxxxxxx |xxxxxxxxxxxxx |xxxxxxxxxxxxx |      1025695 |      1025698 |      1025694 |xxxxxxxxxxxxx |xxxxxxxxxxxxx |xxxxxxxxxxxxx |xxxxxxxxxxxxx |      2188179 |      2188178 |      2188174 |xxxxxxxxxxxxx |xxxxxxxxxxxxx |xxxxxxxxxxxxx |xxxxxxxxxxxxx |      4551750 |      4551751 |      4551748 |xxxxxxxxxxxxx |xxxxxxxxxxxxx |xxxxxxxxxxxxx |xxxxxxxxxxxxx |      9610527 |      9610528 |      9610525 |xxxxxxxxxxxxx |xxxxxxxxxxxxx |xxxxxxxxxxxxx |xxxxxxxxxxxxx |     20084156 |     20084159 |     20084155 |xxxxxxxxxxxxx |xxxxxxxxxxxxx |xxxxxxxxxxxxx |xxxxxxxxxxxxx |     42462280 |     42462281 |     42462278 |
bpred_bimod.jr_hits                           8560 |         8560 |         8560 |xxxxxxxxxxxxx |xxxxxxxxxxxxx |xxxxxxxxxxxxx |xxxxxxxxxxxxx |        16752 |        16752 |        16752 |xxxxxxxxxxxxx |xxxxxxxxxxxxx |xxxxxxxxxxxxx |xxxxxxxxxxxxx |        33136 |        33136 |        33136 |xxxxxxxxxxxxx |xxxxxxxxxxxxx |xxxxxxxxxxxxx |xxxxxxxxxxxxx |        65904 |        65904 |        65904 |xxxxxxxxxxxxx |xxxxxxxxxxxxx |xxxxxxxxxxxxx |xxxxxxxxxxxxx |       131440 |       131440 |       131440 |xxxxxxxxxxxxx |xxxxxxxxxxxxx |xxxxxxxxxxxxx |xxxxxxxxxxxxx |       262512 |       262512 |       262512 |xxxxxxxxxxxxx |xxxxxxxxxxxxx |xxxxxxxxxxxxx |xxxxxxxxxxxxx |       524656 |       524656 |       524656 |xxxxxxxxxxxxx |xxxxxxxxxxxxx |xxxxxxxxxxxxx |xxxxxxxxxxxxx |      1048944 |      1048944 |      1048944 |xxxxxxxxxxxxx |xxxxxxxxxxxxx |xxxxxxxxxxxxx |xxxxxxxxxxxxx |      2097520 |      2097520 |      2097520 |xxxxxxxxxxxxx |xxxxxxxxxxxxx |xxxxxxxxxxxxx |xxxxxxxxxxxxx |      4194672 |      4194672 |      4194672 |xxxxxxxxxxxxx |xxxxxxxxxxxxx |xxxxxxxxxxxxx |xxxxxxxxxxxxx |      8388976 |      8388976 |      8388976 |
bpred_bimod.jr_seen                           8560 |         8560 |         8560 |xxxxxxxxxxxxx |xxxxxxxxxxxxx |xxxxxxxxxxxxx |xxxxxxxxxxxxx |        16752 |        16752 |        16752 |xxxxxxxxxxxxx |xxxxxxxxxxxxx |xxxxxxxxxxxxx |xxxxxxxxxxxxx |        33136 |        33136 |        33136 |xxxxxxxxxxxxx |xxxxxxxxxxxxx |xxxxxxxxxxxxx |xxxxxxxxxxxxx |        65904 |        65904 |        65904 |xxxxxxxxxxxxx |xxxxxxxxxxxxx |xxxxxxxxxxxxx |xxxxxxxxxxxxx |       131440 |       131440 |       131440 |xxxxxxxxxxxxx |xxxxxxxxxxxxx |xxxxxxxxxxxxx |xxxxxxxxxxxxx |       262512 |       262512 |       262512 |xxxxxxxxxxxxx |xxxxxxxxxxxxx |xxxxxxxxxxxxx |xxxxxxxxxxxxx |       524656 |       524656 |       524656 |xxxxxxxxxxxxx |xxxxxxxxxxxxx |xxxxxxxxxxxxx |xxxxxxxxxxxxx |      1048944 |      1048944 |      1048944 |xxxxxxxxxxxxx |xxxxxxxxxxxxx |xxxxxxxxxxxxx |xxxxxxxxxxxxx |      2097520 |      2097520 |      2097520 |xxxxxxxxxxxxx |xxxxxxxxxxxxx |xxxxxxxxxxxxx |xxxxxxxxxxxxx |      4194672 |      4194672 |      4194672 |xxxxxxxxxxxxx |xxxxxxxxxxxxx |xxxxxxxxxxxxx |xxxxxxxxxxxxx |      8388976 |      8388976 |      8388976 |
bpred_bimod.jr_non_ras_hits.PP                   0 |            0 |            0 |xxxxxxxxxxxxx |xxxxxxxxxxxxx |xxxxxxxxxxxxx |xxxxxxxxxxxxx |            0 |            0 |            0 |xxxxxxxxxxxxx |xxxxxxxxxxxxx |xxxxxxxxxxxxx |xxxxxxxxxxxxx |            0 |            0 |            0 |xxxxxxxxxxxxx |xxxxxxxxxxxxx |xxxxxxxxxxxxx |xxxxxxxxxxxxx |            0 |            0 |            0 |xxxxxxxxxxxxx |xxxxxxxxxxxxx |xxxxxxxxxxxxx |xxxxxxxxxxxxx |            0 |            0 |            0 |xxxxxxxxxxxxx |xxxxxxxxxxxxx |xxxxxxxxxxxxx |xxxxxxxxxxxxx |            0 |            0 |            0 |xxxxxxxxxxxxx |xxxxxxxxxxxxx |xxxxxxxxxxxxx |xxxxxxxxxxxxx |            0 |            0 |            0 |xxxxxxxxxxxxx |xxxxxxxxxxxxx |xxxxxxxxxxxxx |xxxxxxxxxxxxx |            0 |            0 |            0 |xxxxxxxxxxxxx |xxxxxxxxxxxxx |xxxxxxxxxxxxx |xxxxxxxxxxxxx |            0 |            0 |            0 |xxxxxxxxxxxxx |xxxxxxxxxxxxx |xxxxxxxxxxxxx |xxxxxxxxxxxxx |            0 |            0 |            0 |xxxxxxxxxxxxx |xxxxxxxxxxxxx |xxxxxxxxxxxxx |xxxxxxxxxxxxx |            0 |            0 |            0 |
bpred_bimod.jr_non_ras_seen.PP                   0 |            0 |            0 |xxxxxxxxxxxxx |xxxxxxxxxxxxx |xxxxxxxxxxxxx |xxxxxxxxxxxxx |            0 |            0 |            0 |xxxxxxxxxxxxx |xxxxxxxxxxxxx |xxxxxxxxxxxxx |xxxxxxxxxxxxx |            0 |            0 |            0 |xxxxxxxxxxxxx |xxxxxxxxxxxxx |xxxxxxxxxxxxx |xxxxxxxxxxxxx |            0 |            0 |            0 |xxxxxxxxxxxxx |xxxxxxxxxxxxx |xxxxxxxxxxxxx |xxxxxxxxxxxxx |            0 |            0 |            0 |xxxxxxxxxxxxx |xxxxxxxxxxxxx |xxxxxxxxxxxxx |xxxxxxxxxxxxx |            0 |            0 |            0 |xxxxxxxxxxxxx |xxxxxxxxxxxxx |xxxxxxxxxxxxx |xxxxxxxxxxxxx |            0 |            0 |            0 |xxxxxxxxxxxxx |xxxxxxxxxxxxx |xxxxxxxxxxxxx |xxxxxxxxxxxxx |            0 |            0 |            0 |xxxxxxxxxxxxx |xxxxxxxxxxxxx |xxxxxxxxxxxxx |xxxxxxxxxxxxx |            0 |            0 |            0 |xxxxxxxxxxxxx |xxxxxxxxxxxxx |xxxxxxxxxxxxx |xxxxxxxxxxxxx |            0 |            0 |            0 |xxxxxxxxxxxxx |xxxxxxxxxxxxx |xxxxxxxxxxxxx |xxxxxxxxxxxxx |            0 |            0 |            0 |
bpred_bimod.bpred_addr_rate                 0.7834 |       0.7834 |       0.7835 |xxxxxxxxxxxxx |xxxxxxxxxxxxx |xxxxxxxxxxxxx |xxxxxxxxxxxxx |       0.7831 |       0.7831 |       0.7831 |xxxxxxxxxxxxx |xxxxxxxxxxxxx |xxxxxxxxxxxxx |xxxxxxxxxxxxx |       0.7817 |       0.7817 |       0.7818 |xxxxxxxxxxxxx |xxxxxxxxxxxxx |xxxxxxxxxxxxx |xxxxxxxxxxxxx |       0.7738 |       0.7738 |       0.7738 |xxxxxxxxxxxxx |xxxxxxxxxxxxx |xxxxxxxxxxxxx |xxxxxxxxxxxxx |       0.7722 |       0.7722 |       0.7722 |xxxxxxxxxxxxx |xxxxxxxxxxxxx |xxxxxxxxxxxxx |xxxxxxxxxxxxx |       0.7763 |       0.7763 |       0.7763 |xxxxxxxxxxxxx |xxxxxxxxxxxxx |xxxxxxxxxxxxx |xxxxxxxxxxxxx |       0.7695 |       0.7695 |       0.7695 |xxxxxxxxxxxxx |xxxxxxxxxxxxx |xxxxxxxxxxxxx |xxxxxxxxxxxxx |       0.7732 |       0.7732 |       0.7732 |xxxxxxxxxxxxx |xxxxxxxxxxxxx |xxxxxxxxxxxxx |xxxxxxxxxxxxx |       0.7686 |       0.7686 |       0.7686 |xxxxxxxxxxxxx |xxxxxxxxxxxxx |xxxxxxxxxxxxx |xxxxxxxxxxxxx |       0.7683 |       0.7683 |       0.7683 |xxxxxxxxxxxxx |xxxxxxxxxxxxx |xxxxxxxxxxxxx |xxxxxxxxxxxxx |       0.7627 |       0.7627 |       0.7627 |
bpred_bimod.bpred_dir_rate                  0.7845 |       0.7845 |       0.7845 |xxxxxxxxxxxxx |xxxxxxxxxxxxx |xxxxxxxxxxxxx |xxxxxxxxxxxxx |       0.7836 |       0.7836 |       0.7836 |xxxxxxxxxxxxx |xxxxxxxxxxxxx |xxxxxxxxxxxxx |xxxxxxxxxxxxx |       0.7820 |       0.7820 |       0.7820 |xxxxxxxxxxxxx |xxxxxxxxxxxxx |xxxxxxxxxxxxx |xxxxxxxxxxxxx |       0.7740 |       0.7740 |       0.7740 |xxxxxxxxxxxxx |xxxxxxxxxxxxx |xxxxxxxxxxxxx |xxxxxxxxxxxxx |       0.7723 |       0.7723 |       0.7723 |xxxxxxxxxxxxx |xxxxxxxxxxxxx |xxxxxxxxxxxxx |xxxxxxxxxxxxx |       0.7764 |       0.7764 |       0.7764 |xxxxxxxxxxxxx |xxxxxxxxxxxxx |xxxxxxxxxxxxx |xxxxxxxxxxxxx |       0.7695 |       0.7695 |       0.7695 |xxxxxxxxxxxxx |xxxxxxxxxxxxx |xxxxxxxxxxxxx |xxxxxxxxxxxxx |       0.7732 |       0.7732 |       0.7732 |xxxxxxxxxxxxx |xxxxxxxxxxxxx |xxxxxxxxxxxxx |xxxxxxxxxxxxx |       0.7686 |       0.7686 |       0.7686 |xxxxxxxxxxxxx |xxxxxxxxxxxxx |xxxxxxxxxxxxx |xxxxxxxxxxxxx |       0.7683 |       0.7683 |       0.7683 |xxxxxxxxxxxxx |xxxxxxxxxxxxx |xxxxxxxxxxxxx |xxxxxxxxxxxxx |       0.7627 |       0.7627 |       0.7627 |
bpred_bimod.bpred_jr_rate                   1.0000 |       1.0000 |       1.0000 |xxxxxxxxxxxxx |xxxxxxxxxxxxx |xxxxxxxxxxxxx |xxxxxxxxxxxxx |       1.0000 |       1.0000 |       1.0000 |xxxxxxxxxxxxx |xxxxxxxxxxxxx |xxxxxxxxxxxxx |xxxxxxxxxxxxx |       1.0000 |       1.0000 |       1.0000 |xxxxxxxxxxxxx |xxxxxxxxxxxxx |xxxxxxxxxxxxx |xxxxxxxxxxxxx |       1.0000 |       1.0000 |       1.0000 |xxxxxxxxxxxxx |xxxxxxxxxxxxx |xxxxxxxxxxxxx |xxxxxxxxxxxxx |       1.0000 |       1.0000 |       1.0000 |xxxxxxxxxxxxx |xxxxxxxxxxxxx |xxxxxxxxxxxxx |xxxxxxxxxxxxx |       1.0000 |       1.0000 |       1.0000 |xxxxxxxxxxxxx |xxxxxxxxxxxxx |xxxxxxxxxxxxx |xxxxxxxxxxxxx |       1.0000 |       1.0000 |       1.0000 |xxxxxxxxxxxxx |xxxxxxxxxxxxx |xxxxxxxxxxxxx |xxxxxxxxxxxxx |       1.0000 |       1.0000 |       1.0000 |xxxxxxxxxxxxx |xxxxxxxxxxxxx |xxxxxxxxxxxxx |xxxxxxxxxxxxx |       1.0000 |       1.0000 |       1.0000 |xxxxxxxxxxxxx |xxxxxxxxxxxxx |xxxxxxxxxxxxx |xxxxxxxxxxxxx |       1.0000 |       1.0000 |       1.0000 |xxxxxxxxxxxxx |xxxxxxxxxxxxx |xxxxxxxxxxxxx |xxxxxxxxxxxxx |       1.0000 |       1.0000 |       1.0000 |
bpred_bimod.bpred_jr_non_ras_rate.PP       <error: |      <error: |      <error: |xxxxxxxxxxxxx |xxxxxxxxxxxxx |xxxxxxxxxxxxx |xxxxxxxxxxxxx |      <error: |      <error: |      <error: |xxxxxxxxxxxxx |xxxxxxxxxxxxx |xxxxxxxxxxxxx |xxxxxxxxxxxxx |      <error: |      <error: |      <error: |xxxxxxxxxxxxx |xxxxxxxxxxxxx |xxxxxxxxxxxxx |xxxxxxxxxxxxx |      <error: |      <error: |      <error: |xxxxxxxxxxxxx |xxxxxxxxxxxxx |xxxxxxxxxxxxx |xxxxxxxxxxxxx |      <error: |      <error: |      <error: |xxxxxxxxxxxxx |xxxxxxxxxxxxx |xxxxxxxxxxxxx |xxxxxxxxxxxxx |      <error: |      <error: |      <error: |xxxxxxxxxxxxx |xxxxxxxxxxxxx |xxxxxxxxxxxxx |xxxxxxxxxxxxx |      <error: |      <error: |      <error: |xxxxxxxxxxxxx |xxxxxxxxxxxxx |xxxxxxxxxxxxx |xxxxxxxxxxxxx |      <error: |      <error: |      <error: |xxxxxxxxxxxxx |xxxxxxxxxxxxx |xxxxxxxxxxxxx |xxxxxxxxxxxxx |      <error: |      <error: |      <error: |xxxxxxxxxxxxx |xxxxxxxxxxxxx |xxxxxxxxxxxxx |xxxxxxxxxxxxx |      <error: |      <error: |      <error: |xxxxxxxxxxxxx |xxxxxxxxxxxxx |xxxxxxxxxxxxx |xxxxxxxxxxxxx |      <error: |      <error: |      <error: |
bpred_bimod.retstack_pushes                   8562 |         8562 |         8562 |xxxxxxxxxxxxx |xxxxxxxxxxxxx |xxxxxxxxxxxxx |xxxxxxxxxxxxx |        16754 |        16754 |        16754 |xxxxxxxxxxxxx |xxxxxxxxxxxxx |xxxxxxxxxxxxx |xxxxxxxxxxxxx |        33138 |        33138 |        33138 |xxxxxxxxxxxxx |xxxxxxxxxxxxx |xxxxxxxxxxxxx |xxxxxxxxxxxxx |        65906 |        65906 |        65906 |xxxxxxxxxxxxx |xxxxxxxxxxxxx |xxxxxxxxxxxxx |xxxxxxxxxxxxx |       131442 |       131442 |       131442 |xxxxxxxxxxxxx |xxxxxxxxxxxxx |xxxxxxxxxxxxx |xxxxxxxxxxxxx |       262514 |       262514 |       262514 |xxxxxxxxxxxxx |xxxxxxxxxxxxx |xxxxxxxxxxxxx |xxxxxxxxxxxxx |       524658 |       524658 |       524658 |xxxxxxxxxxxxx |xxxxxxxxxxxxx |xxxxxxxxxxxxx |xxxxxxxxxxxxx |      1048946 |      1048946 |      1048946 |xxxxxxxxxxxxx |xxxxxxxxxxxxx |xxxxxxxxxxxxx |xxxxxxxxxxxxx |      2097522 |      2097522 |      2097522 |xxxxxxxxxxxxx |xxxxxxxxxxxxx |xxxxxxxxxxxxx |xxxxxxxxxxxxx |      4194674 |      4194674 |      4194674 |xxxxxxxxxxxxx |xxxxxxxxxxxxx |xxxxxxxxxxxxx |xxxxxxxxxxxxx |      8388978 |      8388978 |      8388978 |
bpred_bimod.retstack_pops                     8560 |         8560 |         8560 |xxxxxxxxxxxxx |xxxxxxxxxxxxx |xxxxxxxxxxxxx |xxxxxxxxxxxxx |        16752 |        16752 |        16752 |xxxxxxxxxxxxx |xxxxxxxxxxxxx |xxxxxxxxxxxxx |xxxxxxxxxxxxx |        33136 |        33136 |        33136 |xxxxxxxxxxxxx |xxxxxxxxxxxxx |xxxxxxxxxxxxx |xxxxxxxxxxxxx |        65904 |        65904 |        65904 |xxxxxxxxxxxxx |xxxxxxxxxxxxx |xxxxxxxxxxxxx |xxxxxxxxxxxxx |       131440 |       131440 |       131440 |xxxxxxxxxxxxx |xxxxxxxxxxxxx |xxxxxxxxxxxxx |xxxxxxxxxxxxx |       262512 |       262512 |       262512 |xxxxxxxxxxxxx |xxxxxxxxxxxxx |xxxxxxxxxxxxx |xxxxxxxxxxxxx |       524656 |       524656 |       524656 |xxxxxxxxxxxxx |xxxxxxxxxxxxx |xxxxxxxxxxxxx |xxxxxxxxxxxxx |      1048944 |      1048944 |      1048944 |xxxxxxxxxxxxx |xxxxxxxxxxxxx |xxxxxxxxxxxxx |xxxxxxxxxxxxx |      2097520 |      2097520 |      2097520 |xxxxxxxxxxxxx |xxxxxxxxxxxxx |xxxxxxxxxxxxx |xxxxxxxxxxxxx |      4194672 |      4194672 |      4194672 |xxxxxxxxxxxxx |xxxxxxxxxxxxx |xxxxxxxxxxxxx |xxxxxxxxxxxxx |      8388976 |      8388976 |      8388976 |
bpred_bimod.used_ras.PP                       8560 |         8560 |         8560 |xxxxxxxxxxxxx |xxxxxxxxxxxxx |xxxxxxxxxxxxx |xxxxxxxxxxxxx |        16752 |        16752 |        16752 |xxxxxxxxxxxxx |xxxxxxxxxxxxx |xxxxxxxxxxxxx |xxxxxxxxxxxxx |        33136 |        33136 |        33136 |xxxxxxxxxxxxx |xxxxxxxxxxxxx |xxxxxxxxxxxxx |xxxxxxxxxxxxx |        65904 |        65904 |        65904 |xxxxxxxxxxxxx |xxxxxxxxxxxxx |xxxxxxxxxxxxx |xxxxxxxxxxxxx |       131440 |       131440 |       131440 |xxxxxxxxxxxxx |xxxxxxxxxxxxx |xxxxxxxxxxxxx |xxxxxxxxxxxxx |       262512 |       262512 |       262512 |xxxxxxxxxxxxx |xxxxxxxxxxxxx |xxxxxxxxxxxxx |xxxxxxxxxxxxx |       524656 |       524656 |       524656 |xxxxxxxxxxxxx |xxxxxxxxxxxxx |xxxxxxxxxxxxx |xxxxxxxxxxxxx |      1048944 |      1048944 |      1048944 |xxxxxxxxxxxxx |xxxxxxxxxxxxx |xxxxxxxxxxxxx |xxxxxxxxxxxxx |      2097520 |      2097520 |      2097520 |xxxxxxxxxxxxx |xxxxxxxxxxxxx |xxxxxxxxxxxxx |xxxxxxxxxxxxx |      4194672 |      4194672 |      4194672 |xxxxxxxxxxxxx |xxxxxxxxxxxxx |xxxxxxxxxxxxx |xxxxxxxxxxxxx |      8388976 |      8388976 |      8388976 |
bpred_bimod.ras_hits.PP                       8560 |         8560 |         8560 |xxxxxxxxxxxxx |xxxxxxxxxxxxx |xxxxxxxxxxxxx |xxxxxxxxxxxxx |        16752 |        16752 |        16752 |xxxxxxxxxxxxx |xxxxxxxxxxxxx |xxxxxxxxxxxxx |xxxxxxxxxxxxx |        33136 |        33136 |        33136 |xxxxxxxxxxxxx |xxxxxxxxxxxxx |xxxxxxxxxxxxx |xxxxxxxxxxxxx |        65904 |        65904 |        65904 |xxxxxxxxxxxxx |xxxxxxxxxxxxx |xxxxxxxxxxxxx |xxxxxxxxxxxxx |       131440 |       131440 |       131440 |xxxxxxxxxxxxx |xxxxxxxxxxxxx |xxxxxxxxxxxxx |xxxxxxxxxxxxx |       262512 |       262512 |       262512 |xxxxxxxxxxxxx |xxxxxxxxxxxxx |xxxxxxxxxxxxx |xxxxxxxxxxxxx |       524656 |       524656 |       524656 |xxxxxxxxxxxxx |xxxxxxxxxxxxx |xxxxxxxxxxxxx |xxxxxxxxxxxxx |      1048944 |      1048944 |      1048944 |xxxxxxxxxxxxx |xxxxxxxxxxxxx |xxxxxxxxxxxxx |xxxxxxxxxxxxx |      2097520 |      2097520 |      2097520 |xxxxxxxxxxxxx |xxxxxxxxxxxxx |xxxxxxxxxxxxx |xxxxxxxxxxxxx |      4194672 |      4194672 |      4194672 |xxxxxxxxxxxxx |xxxxxxxxxxxxx |xxxxxxxxxxxxx |xxxxxxxxxxxxx |      8388976 |      8388976 |      8388976 |
bpred_bimod.ras_rate.PP                     1.0000 |       1.0000 |       1.0000 |xxxxxxxxxxxxx |xxxxxxxxxxxxx |xxxxxxxxxxxxx |xxxxxxxxxxxxx |       1.0000 |       1.0000 |       1.0000 |xxxxxxxxxxxxx |xxxxxxxxxxxxx |xxxxxxxxxxxxx |xxxxxxxxxxxxx |       1.0000 |       1.0000 |       1.0000 |xxxxxxxxxxxxx |xxxxxxxxxxxxx |xxxxxxxxxxxxx |xxxxxxxxxxxxx |       1.0000 |       1.0000 |       1.0000 |xxxxxxxxxxxxx |xxxxxxxxxxxxx |xxxxxxxxxxxxx |xxxxxxxxxxxxx |       1.0000 |       1.0000 |       1.0000 |xxxxxxxxxxxxx |xxxxxxxxxxxxx |xxxxxxxxxxxxx |xxxxxxxxxxxxx |       1.0000 |       1.0000 |       1.0000 |xxxxxxxxxxxxx |xxxxxxxxxxxxx |xxxxxxxxxxxxx |xxxxxxxxxxxxx |       1.0000 |       1.0000 |       1.0000 |xxxxxxxxxxxxx |xxxxxxxxxxxxx |xxxxxxxxxxxxx |xxxxxxxxxxxxx |       1.0000 |       1.0000 |       1.0000 |xxxxxxxxxxxxx |xxxxxxxxxxxxx |xxxxxxxxxxxxx |xxxxxxxxxxxxx |       1.0000 |       1.0000 |       1.0000 |xxxxxxxxxxxxx |xxxxxxxxxxxxx |xxxxxxxxxxxxx |xxxxxxxxxxxxx |       1.0000 |       1.0000 |       1.0000 |xxxxxxxxxxxxx |xxxxxxxxxxxxx |xxxxxxxxxxxxx |xxxxxxxxxxxxx |       1.0000 |       1.0000 |       1.0000 |
bpred_2lev.lookups                   xxxxxxxxxxxxx |xxxxxxxxxxxxx |xxxxxxxxxxxxx |       111632 |       111632 |       111632 |       111632 |xxxxxxxxxxxxx |xxxxxxxxxxxxx |xxxxxxxxxxxxx |       234872 |       234872 |       234872 |       234872 |xxxxxxxxxxxxx |xxxxxxxxxxxxx |xxxxxxxxxxxxx |       490284 |       490284 |       490284 |       490284 |xxxxxxxxxxxxx |xxxxxxxxxxxxx |xxxxxxxxxxxxx |      1026290 |      1026290 |      1026290 |      1026290 |xxxxxxxxxxxxx |xxxxxxxxxxxxx |xxxxxxxxxxxxx |      2159289 |      2159289 |      2159289 |      2159289 |xxxxxxxxxxxxx |xxxxxxxxxxxxx |xxxxxxxxxxxxx |      4586235 |      4586235 |      4586235 |      4586235 |xxxxxxxxxxxxx |xxxxxxxxxxxxx |xxxxxxxxxxxxx |      9494453 |      9494453 |      9494453 |      9494453 |xxxxxxxxxxxxx |xxxxxxxxxxxxx |xxxxxxxxxxxxx |     20071849 |     20071849 |     20071849 |     20071849 |xxxxxxxxxxxxx |xxxxxxxxxxxxx |xxxxxxxxxxxxx |     41539147 |     41539147 |     41539147 |     41539147 |xxxxxxxxxxxxx |xxxxxxxxxxxxx |xxxxxxxxxxxxx |     86680588 |     86680588 |     86680588 |     86680588 |xxxxxxxxxxxxx |xxxxxxxxxxxxx |xxxxxxxxxxxxx |    178912340 |    178912340 |    178912340 |    178912340 |
[...]
bpred_2lev.retstack_pushes           xxxxxxxxxxxxx |xxxxxxxxxxxxx |xxxxxxxxxxxxx |         8562 |         8562 |         8562 |         8562 |xxxxxxxxxxxxx |xxxxxxxxxxxxx |xxxxxxxxxxxxx |        16754 |        16754 |        16754 |        16754 |xxxxxxxxxxxxx |xxxxxxxxxxxxx |xxxxxxxxxxxxx |        33138 |        33138 |        33138 |        33138 |xxxxxxxxxxxxx |xxxxxxxxxxxxx |xxxxxxxxxxxxx |        65906 |        65906 |        65906 |        65906 |xxxxxxxxxxxxx |xxxxxxxxxxxxx |xxxxxxxxxxxxx |       131442 |       131442 |       131442 |       131442 |xxxxxxxxxxxxx |xxxxxxxxxxxxx |xxxxxxxxxxxxx |       262514 |       262514 |       262514 |       262514 |xxxxxxxxxxxxx |xxxxxxxxxxxxx |xxxxxxxxxxxxx |       524658 |       524658 |       524658 |       524658 |xxxxxxxxxxxxx |xxxxxxxxxxxxx |xxxxxxxxxxxxx |      1048946 |      1048946 |      1048946 |      1048946 |xxxxxxxxxxxxx |xxxxxxxxxxxxx |xxxxxxxxxxxxx |      2097522 |      2097522 |      2097522 |      2097522 |xxxxxxxxxxxxx |xxxxxxxxxxxxx |xxxxxxxxxxxxx |      4194674 |      4194674 |      4194674 |      4194674 |xxxxxxxxxxxxx |xxxxxxxxxxxxx |xxxxxxxxxxxxx |      8388978 |      8388978 |      8388978 |      8388978 |
bpred_2lev.retstack_pops             xxxxxxxxxxxxx |xxxxxxxxxxxxx |xxxxxxxxxxxxx |         8560 |         8560 |         8560 |         8560 |xxxxxxxxxxxxx |xxxxxxxxxxxxx |xxxxxxxxxxxxx |        16752 |        16752 |        16752 |        16752 |xxxxxxxxxxxxx |xxxxxxxxxxxxx |xxxxxxxxxxxxx |        33136 |        33136 |        33136 |        33136 |xxxxxxxxxxxxx |xxxxxxxxxxxxx |xxxxxxxxxxxxx |        65904 |        65904 |        65904 |        65904 |xxxxxxxxxxxxx |xxxxxxxxxxxxx |xxxxxxxxxxxxx |       131440 |       131440 |       131440 |       131440 |xxxxxxxxxxxxx |xxxxxxxxxxxxx |xxxxxxxxxxxxx |       262512 |       262512 |       262512 |       262512 |xxxxxxxxxxxxx |xxxxxxxxxxxxx |xxxxxxxxxxxxx |       524656 |       524656 |       524656 |       524656 |xxxxxxxxxxxxx |xxxxxxxxxxxxx |xxxxxxxxxxxxx |      1048944 |      1048944 |      1048944 |      1048944 |xxxxxxxxxxxxx |xxxxxxxxxxxxx |xxxxxxxxxxxxx |      2097520 |      2097520 |      2097520 |      2097520 |xxxxxxxxxxxxx |xxxxxxxxxxxxx |xxxxxxxxxxxxx |      4194672 |      4194672 |      4194672 |      4194672 |xxxxxxxxxxxxx |xxxxxxxxxxxxx |xxxxxxxxxxxxx |      8388976 |      8388976 |      8388976 |      8388976 |
bpred_2lev.used_ras.PP               xxxxxxxxxxxxx |xxxxxxxxxxxxx |xxxxxxxxxxxxx |         8560 |         8560 |         8560 |         8560 |xxxxxxxxxxxxx |xxxxxxxxxxxxx |xxxxxxxxxxxxx |        16752 |        16752 |        16752 |        16752 |xxxxxxxxxxxxx |xxxxxxxxxxxxx |xxxxxxxxxxxxx |        33136 |        33136 |        33136 |        33136 |xxxxxxxxxxxxx |xxxxxxxxxxxxx |xxxxxxxxxxxxx |        65904 |        65904 |        65904 |        65904 |xxxxxxxxxxxxx |xxxxxxxxxxxxx |xxxxxxxxxxxxx |       131440 |       131440 |       131440 |       131440 |xxxxxxxxxxxxx |xxxxxxxxxxxxx |xxxxxxxxxxxxx |       262512 |       262512 |       262512 |       262512 |xxxxxxxxxxxxx |xxxxxxxxxxxxx |xxxxxxxxxxxxx |       524656 |       524656 |       524656 |       524656 |xxxxxxxxxxxxx |xxxxxxxxxxxxx |xxxxxxxxxxxxx |      1048944 |      1048944 |      1048944 |      1048944 |xxxxxxxxxxxxx |xxxxxxxxxxxxx |xxxxxxxxxxxxx |      2097520 |      2097520 |      2097520 |      2097520 |xxxxxxxxxxxxx |xxxxxxxxxxxxx |xxxxxxxxxxxxx |      4194672 |      4194672 |      4194672 |      4194672 |xxxxxxxxxxxxx |xxxxxxxxxxxxx |xxxxxxxxxxxxx |      8388976 |      8388976 |      8388976 |      8388976 |
bpred_2lev.ras_hits.PP               xxxxxxxxxxxxx |xxxxxxxxxxxxx |xxxxxxxxxxxxx |         8560 |         8560 |         8560 |         8560 |xxxxxxxxxxxxx |xxxxxxxxxxxxx |xxxxxxxxxxxxx |        16752 |        16752 |        16752 |        16752 |xxxxxxxxxxxxx |xxxxxxxxxxxxx |xxxxxxxxxxxxx |        33136 |        33136 |        33136 |        33136 |xxxxxxxxxxxxx |xxxxxxxxxxxxx |xxxxxxxxxxxxx |        65904 |        65904 |        65904 |        65904 |xxxxxxxxxxxxx |xxxxxxxxxxxxx |xxxxxxxxxxxxx |       131440 |       131440 |       131440 |       131440 |xxxxxxxxxxxxx |xxxxxxxxxxxxx |xxxxxxxxxxxxx |       262512 |       262512 |       262512 |       262512 |xxxxxxxxxxxxx |xxxxxxxxxxxxx |xxxxxxxxxxxxx |       524656 |       524656 |       524656 |       524656 |xxxxxxxxxxxxx |xxxxxxxxxxxxx |xxxxxxxxxxxxx |      1048944 |      1048944 |      1048944 |      1048944 |xxxxxxxxxxxxx |xxxxxxxxxxxxx |xxxxxxxxxxxxx |      2097520 |      2097520 |      2097520 |      2097520 |xxxxxxxxxxxxx |xxxxxxxxxxxxx |xxxxxxxxxxxxx |      4194672 |      4194672 |      4194672 |      4194672 |xxxxxxxxxxxxx |xxxxxxxxxxxxx |xxxxxxxxxxxxx |      8388976 |      8388976 |      8388976 |      8388976 |
bpred_2lev.ras_rate.PP               xxxxxxxxxxxxx |xxxxxxxxxxxxx |xxxxxxxxxxxxx |       1.0000 |       1.0000 |       1.0000 |       1.0000 |xxxxxxxxxxxxx |xxxxxxxxxxxxx |xxxxxxxxxxxxx |       1.0000 |       1.0000 |       1.0000 |       1.0000 |xxxxxxxxxxxxx |xxxxxxxxxxxxx |xxxxxxxxxxxxx |       1.0000 |       1.0000 |       1.0000 |       1.0000 |xxxxxxxxxxxxx |xxxxxxxxxxxxx |xxxxxxxxxxxxx |       1.0000 |       1.0000 |       1.0000 |       1.0000 |xxxxxxxxxxxxx |xxxxxxxxxxxxx |xxxxxxxxxxxxx |       1.0000 |       1.0000 |       1.0000 |       1.0000 |xxxxxxxxxxxxx |xxxxxxxxxxxxx |xxxxxxxxxxxxx |       1.0000 |       1.0000 |       1.0000 |       1.0000 |xxxxxxxxxxxxx |xxxxxxxxxxxxx |xxxxxxxxxxxxx |       1.0000 |       1.0000 |       1.0000 |       1.0000 |xxxxxxxxxxxxx |xxxxxxxxxxxxx |xxxxxxxxxxxxx |       1.0000 |       1.0000 |       1.0000 |       1.0000 |xxxxxxxxxxxxx |xxxxxxxxxxxxx |xxxxxxxxxxxxx |       1.0000 |       1.0000 |       1.0000 |       1.0000 |xxxxxxxxxxxxx |xxxxxxxxxxxxx |xxxxxxxxxxxxx |       1.0000 |       1.0000 |       1.0000 |       1.0000 |xxxxxxxxxxxxx |xxxxxxxxxxxxx |xxxxxxxxxxxxx |       1.0000 |       1.0000 |       1.0000 |       1.0000 |

Command list: 
	sslittle-na-sstrix-gcc -Wall -O3 -funroll-loops  -DRANDOM_SIZE=4096 -DSEED=0 -DSORT=cache_quicksort cache_quicksort1240004332.c simpleMain.c -o cache_quicksort1826031517
	sim-cache -cache:dl1 dl1:256:32:1:l -cache:dl2 dl2:131072:32:1:l -cache:il1 il1:256:32:1:l -cache:il2 dl2 cache_quicksort1826031517
	sim-cache -cache:dl1 dl1:256:32:1:l -cache:dl2 dl2:65536:32:1:l -cache:il1 il1:256:32:1:l -cache:il2 dl2 cache_quicksort1826031517
	sim-cache -cache:dl1 dl1:1:32:256:l -cache:dl2 dl2:1:32:131072:l -cache:il1 il1:1:32:256:l -cache:il2 dl2 cache_quicksort1826031517
	sim-cache -cache:dl1 dl1:1:32:256:l -cache:dl2 dl2:1:32:65536:l -cache:il1 il1:1:32:256:l -cache:il2 dl2 cache_quicksort1826031517
	sim-bpred -bpred bimod -bpred:bimod 512 cache_quicksort1826031517
	sim-bpred -bpred bimod -bpred:bimod 1024 cache_quicksort1826031517
	sim-bpred -bpred bimod -bpred:bimod 2048 cache_quicksort1826031517
	sim-bpred -bpred 2lev -bpred:2lev 1 512 10 1 cache_quicksort1826031517
	sim-bpred -bpred 2lev -bpred:2lev 1 1024 10 1 cache_quicksort1826031517
	sim-bpred -bpred 2lev -bpred:2lev 1 2048 10 1 cache_quicksort1826031517
	sim-bpred -bpred 2lev -bpred:2lev 1 4096 10 1 cache_quicksort1826031517
	sslittle-na-sstrix-gcc -Wall -O3 -funroll-loops  -DRANDOM_SIZE=8192 -DSEED=0 -DSORT=cache_quicksort cache_quicksort1240004332.c simpleMain.c -o cache_quicksort1826031517
	sim-cache -cache:dl1 dl1:256:32:1:l -cache:dl2 dl2:131072:32:1:l -cache:il1 il1:256:32:1:l -cache:il2 dl2 cache_quicksort1826031517
	sim-cache -cache:dl1 dl1:256:32:1:l -cache:dl2 dl2:65536:32:1:l -cache:il1 il1:256:32:1:l -cache:il2 dl2 cache_quicksort1826031517
	sim-cache -cache:dl1 dl1:1:32:256:l -cache:dl2 dl2:1:32:131072:l -cache:il1 il1:1:32:256:l -cache:il2 dl2 cache_quicksort1826031517
	sim-cache -cache:dl1 dl1:1:32:256:l -cache:dl2 dl2:1:32:65536:l -cache:il1 il1:1:32:256:l -cache:il2 dl2 cache_quicksort1826031517
	sim-bpred -bpred bimod -bpred:bimod 512 cache_quicksort1826031517
	sim-bpred -bpred bimod -bpred:bimod 1024 cache_quicksort1826031517
	sim-bpred -bpred bimod -bpred:bimod 2048 cache_quicksort1826031517
	sim-bpred -bpred 2lev -bpred:2lev 1 512 10 1 cache_quicksort1826031517
	sim-bpred -bpred 2lev -bpred:2lev 1 1024 10 1 cache_quicksort1826031517
	sim-bpred -bpred 2lev -bpred:2lev 1 2048 10 1 cache_quicksort1826031517
	sim-bpred -bpred 2lev -bpred:2lev 1 4096 10 1 cache_quicksort1826031517
	sslittle-na-sstrix-gcc -Wall -O3 -funroll-loops  -DRANDOM_SIZE=16384 -DSEED=0 -DSORT=cache_quicksort cache_quicksort1240004332.c simpleMain.c -o cache_quicksort1826031517
	sim-cache -cache:dl1 dl1:256:32:1:l -cache:dl2 dl2:131072:32:1:l -cache:il1 il1:256:32:1:l -cache:il2 dl2 cache_quicksort1826031517
	sim-cache -cache:dl1 dl1:256:32:1:l -cache:dl2 dl2:65536:32:1:l -cache:il1 il1:256:32:1:l -cache:il2 dl2 cache_quicksort1826031517
	sim-cache -cache:dl1 dl1:1:32:256:l -cache:dl2 dl2:1:32:131072:l -cache:il1 il1:1:32:256:l -cache:il2 dl2 cache_quicksort1826031517
	sim-cache -cache:dl1 dl1:1:32:256:l -cache:dl2 dl2:1:32:65536:l -cache:il1 il1:1:32:256:l -cache:il2 dl2 cache_quicksort1826031517
	sim-bpred -bpred bimod -bpred:bimod 512 cache_quicksort1826031517
	sim-bpred -bpred bimod -bpred:bimod 1024 cache_quicksort1826031517
	sim-bpred -bpred bimod -bpred:bimod 2048 cache_quicksort1826031517
	sim-bpred -bpred 2lev -bpred:2lev 1 512 10 1 cache_quicksort1826031517
	sim-bpred -bpred 2lev -bpred:2lev 1 1024 10 1 cache_quicksort1826031517
	sim-bpred -bpred 2lev -bpred:2lev 1 2048 10 1 cache_quicksort1826031517
	sim-bpred -bpred 2lev -bpred:2lev 1 4096 10 1 cache_quicksort1826031517
	sslittle-na-sstrix-gcc -Wall -O3 -funroll-loops  -DRANDOM_SIZE=32768 -DSEED=0 -DSORT=cache_quicksort cache_quicksort1240004332.c simpleMain.c -o cache_quicksort1826031517
	sim-cache -cache:dl1 dl1:256:32:1:l -cache:dl2 dl2:131072:32:1:l -cache:il1 il1:256:32:1:l -cache:il2 dl2 cache_quicksort1826031517
	sim-cache -cache:dl1 dl1:256:32:1:l -cache:dl2 dl2:65536:32:1:l -cache:il1 il1:256:32:1:l -cache:il2 dl2 cache_quicksort1826031517
	sim-cache -cache:dl1 dl1:1:32:256:l -cache:dl2 dl2:1:32:131072:l -cache:il1 il1:1:32:256:l -cache:il2 dl2 cache_quicksort1826031517
	sim-cache -cache:dl1 dl1:1:32:256:l -cache:dl2 dl2:1:32:65536:l -cache:il1 il1:1:32:256:l -cache:il2 dl2 cache_quicksort1826031517
	sim-bpred -bpred bimod -bpred:bimod 512 cache_quicksort1826031517
	sim-bpred -bpred bimod -bpred:bimod 1024 cache_quicksort1826031517
	sim-bpred -bpred bimod -bpred:bimod 2048 cache_quicksort1826031517
	sim-bpred -bpred 2lev -bpred:2lev 1 512 10 1 cache_quicksort1826031517
	sim-bpred -bpred 2lev -bpred:2lev 1 1024 10 1 cache_quicksort1826031517
	sim-bpred -bpred 2lev -bpred:2lev 1 2048 10 1 cache_quicksort1826031517
	sim-bpred -bpred 2lev -bpred:2lev 1 4096 10 1 cache_quicksort1826031517
	sslittle-na-sstrix-gcc -Wall -O3 -funroll-loops  -DRANDOM_SIZE=65536 -DSEED=0 -DSORT=cache_quicksort cache_quicksort1240004332.c simpleMain.c -o cache_quicksort1826031517
	sim-cache -cache:dl1 dl1:256:32:1:l -cache:dl2 dl2:131072:32:1:l -cache:il1 il1:256:32:1:l -cache:il2 dl2 cache_quicksort1826031517
	sim-cache -cache:dl1 dl1:256:32:1:l -cache:dl2 dl2:65536:32:1:l -cache:il1 il1:256:32:1:l -cache:il2 dl2 cache_quicksort1826031517
	sim-cache -cache:dl1 dl1:1:32:256:l -cache:dl2 dl2:1:32:131072:l -cache:il1 il1:1:32:256:l -cache:il2 dl2 cache_quicksort1826031517
	sim-cache -cache:dl1 dl1:1:32:256:l -cache:dl2 dl2:1:32:65536:l -cache:il1 il1:1:32:256:l -cache:il2 dl2 cache_quicksort1826031517
	sim-bpred -bpred bimod -bpred:bimod 512 cache_quicksort1826031517
	sim-bpred -bpred bimod -bpred:bimod 1024 cache_quicksort1826031517
	sim-bpred -bpred bimod -bpred:bimod 2048 cache_quicksort1826031517
	sim-bpred -bpred 2lev -bpred:2lev 1 512 10 1 cache_quicksort1826031517
	sim-bpred -bpred 2lev -bpred:2lev 1 1024 10 1 cache_quicksort1826031517
	sim-bpred -bpred 2lev -bpred:2lev 1 2048 10 1 cache_quicksort1826031517
	sim-bpred -bpred 2lev -bpred:2lev 1 4096 10 1 cache_quicksort1826031517
	sslittle-na-sstrix-gcc -Wall -O3 -funroll-loops  -DRANDOM_SIZE=131072 -DSEED=0 -DSORT=cache_quicksort cache_quicksort1240004332.c simpleMain.c -o cache_quicksort1826031517
	sim-cache -cache:dl1 dl1:256:32:1:l -cache:dl2 dl2:131072:32:1:l -cache:il1 il1:256:32:1:l -cache:il2 dl2 cache_quicksort1826031517
	sim-cache -cache:dl1 dl1:256:32:1:l -cache:dl2 dl2:65536:32:1:l -cache:il1 il1:256:32:1:l -cache:il2 dl2 cache_quicksort1826031517
	sim-cache -cache:dl1 dl1:1:32:256:l -cache:dl2 dl2:1:32:131072:l -cache:il1 il1:1:32:256:l -cache:il2 dl2 cache_quicksort1826031517
	sim-cache -cache:dl1 dl1:1:32:256:l -cache:dl2 dl2:1:32:65536:l -cache:il1 il1:1:32:256:l -cache:il2 dl2 cache_quicksort1826031517
	sim-bpred -bpred bimod -bpred:bimod 512 cache_quicksort1826031517
	sim-bpred -bpred bimod -bpred:bimod 1024 cache_quicksort1826031517
	sim-bpred -bpred bimod -bpred:bimod 2048 cache_quicksort1826031517
	sim-bpred -bpred 2lev -bpred:2lev 1 512 10 1 cache_quicksort1826031517
	sim-bpred -bpred 2lev -bpred:2lev 1 1024 10 1 cache_quicksort1826031517
	sim-bpred -bpred 2lev -bpred:2lev 1 2048 10 1 cache_quicksort1826031517
	sim-bpred -bpred 2lev -bpred:2lev 1 4096 10 1 cache_quicksort1826031517
	sslittle-na-sstrix-gcc -Wall -O3 -funroll-loops  -DRANDOM_SIZE=262144 -DSEED=0 -DSORT=cache_quicksort cache_quicksort1240004332.c simpleMain.c -o cache_quicksort1826031517
	sim-cache -cache:dl1 dl1:256:32:1:l -cache:dl2 dl2:131072:32:1:l -cache:il1 il1:256:32:1:l -cache:il2 dl2 cache_quicksort1826031517
	sim-cache -cache:dl1 dl1:256:32:1:l -cache:dl2 dl2:65536:32:1:l -cache:il1 il1:256:32:1:l -cache:il2 dl2 cache_quicksort1826031517
	sim-cache -cache:dl1 dl1:1:32:256:l -cache:dl2 dl2:1:32:131072:l -cache:il1 il1:1:32:256:l -cache:il2 dl2 cache_quicksort1826031517
	sim-cache -cache:dl1 dl1:1:32:256:l -cache:dl2 dl2:1:32:65536:l -cache:il1 il1:1:32:256:l -cache:il2 dl2 cache_quicksort1826031517
	sim-bpred -bpred bimod -bpred:bimod 512 cache_quicksort1826031517
	sim-bpred -bpred bimod -bpred:bimod 1024 cache_quicksort1826031517
	sim-bpred -bpred bimod -bpred:bimod 2048 cache_quicksort1826031517
	sim-bpred -bpred 2lev -bpred:2lev 1 512 10 1 cache_quicksort1826031517
	sim-bpred -bpred 2lev -bpred:2lev 1 1024 10 1 cache_quicksort1826031517
	sim-bpred -bpred 2lev -bpred:2lev 1 2048 10 1 cache_quicksort1826031517
	sim-bpred -bpred 2lev -bpred:2lev 1 4096 10 1 cache_quicksort1826031517
	sslittle-na-sstrix-gcc -Wall -O3 -funroll-loops  -DRANDOM_SIZE=524288 -DSEED=0 -DSORT=cache_quicksort cache_quicksort1240004332.c simpleMain.c -o cache_quicksort1826031517
	sim-cache -cache:dl1 dl1:256:32:1:l -cache:dl2 dl2:131072:32:1:l -cache:il1 il1:256:32:1:l -cache:il2 dl2 cache_quicksort1826031517
	sim-cache -cache:dl1 dl1:256:32:1:l -cache:dl2 dl2:65536:32:1:l -cache:il1 il1:256:32:1:l -cache:il2 dl2 cache_quicksort1826031517
	sim-cache -cache:dl1 dl1:1:32:256:l -cache:dl2 dl2:1:32:131072:l -cache:il1 il1:1:32:256:l -cache:il2 dl2 cache_quicksort1826031517
	sim-cache -cache:dl1 dl1:1:32:256:l -cache:dl2 dl2:1:32:65536:l -cache:il1 il1:1:32:256:l -cache:il2 dl2 cache_quicksort1826031517
	sim-bpred -bpred bimod -bpred:bimod 512 cache_quicksort1826031517
	sim-bpred -bpred bimod -bpred:bimod 1024 cache_quicksort1826031517
	sim-bpred -bpred bimod -bpred:bimod 2048 cache_quicksort1826031517
	sim-bpred -bpred 2lev -bpred:2lev 1 512 10 1 cache_quicksort1826031517
	sim-bpred -bpred 2lev -bpred:2lev 1 1024 10 1 cache_quicksort1826031517
	sim-bpred -bpred 2lev -bpred:2lev 1 2048 10 1 cache_quicksort1826031517
	sim-bpred -bpred 2lev -bpred:2lev 1 4096 10 1 cache_quicksort1826031517
	sslittle-na-sstrix-gcc -Wall -O3 -funroll-loops  -DRANDOM_SIZE=1048576 -DSEED=0 -DSORT=cache_quicksort cache_quicksort1240004332.c simpleMain.c -o cache_quicksort1826031517
	sim-cache -cache:dl1 dl1:256:32:1:l -cache:dl2 dl2:131072:32:1:l -cache:il1 il1:256:32:1:l -cache:il2 dl2 cache_quicksort1826031517
	sim-cache -cache:dl1 dl1:256:32:1:l -cache:dl2 dl2:65536:32:1:l -cache:il1 il1:256:32:1:l -cache:il2 dl2 cache_quicksort1826031517
	sim-cache -cache:dl1 dl1:1:32:256:l -cache:dl2 dl2:1:32:131072:l -cache:il1 il1:1:32:256:l -cache:il2 dl2 cache_quicksort1826031517
	sim-cache -cache:dl1 dl1:1:32:256:l -cache:dl2 dl2:1:32:65536:l -cache:il1 il1:1:32:256:l -cache:il2 dl2 cache_quicksort1826031517
	sim-bpred -bpred bimod -bpred:bimod 512 cache_quicksort1826031517
	sim-bpred -bpred bimod -bpred:bimod 1024 cache_quicksort1826031517
	sim-bpred -bpred bimod -bpred:bimod 2048 cache_quicksort1826031517
	sim-bpred -bpred 2lev -bpred:2lev 1 512 10 1 cache_quicksort1826031517
	sim-bpred -bpred 2lev -bpred:2lev 1 1024 10 1 cache_quicksort1826031517
	sim-bpred -bpred 2lev -bpred:2lev 1 2048 10 1 cache_quicksort1826031517
	sim-bpred -bpred 2lev -bpred:2lev 1 4096 10 1 cache_quicksort1826031517
	sslittle-na-sstrix-gcc -Wall -O3 -funroll-loops  -DRANDOM_SIZE=2097152 -DSEED=0 -DSORT=cache_quicksort cache_quicksort1240004332.c simpleMain.c -o cache_quicksort1826031517
	sim-cache -cache:dl1 dl1:256:32:1:l -cache:dl2 dl2:131072:32:1:l -cache:il1 il1:256:32:1:l -cache:il2 dl2 cache_quicksort1826031517
	sim-cache -cache:dl1 dl1:256:32:1:l -cache:dl2 dl2:65536:32:1:l -cache:il1 il1:256:32:1:l -cache:il2 dl2 cache_quicksort1826031517
	sim-cache -cache:dl1 dl1:1:32:256:l -cache:dl2 dl2:1:32:131072:l -cache:il1 il1:1:32:256:l -cache:il2 dl2 cache_quicksort1826031517
	sim-cache -cache:dl1 dl1:1:32:256:l -cache:dl2 dl2:1:32:65536:l -cache:il1 il1:1:32:256:l -cache:il2 dl2 cache_quicksort1826031517
	sim-bpred -bpred bimod -bpred:bimod 512 cache_quicksort1826031517
	sim-bpred -bpred bimod -bpred:bimod 1024 cache_quicksort1826031517
	sim-bpred -bpred bimod -bpred:bimod 2048 cache_quicksort1826031517
	sim-bpred -bpred 2lev -bpred:2lev 1 512 10 1 cache_quicksort1826031517
	sim-bpred -bpred 2lev -bpred:2lev 1 1024 10 1 cache_quicksort1826031517
	sim-bpred -bpred 2lev -bpred:2lev 1 2048 10 1 cache_quicksort1826031517
	sim-bpred -bpred 2lev -bpred:2lev 1 4096 10 1 cache_quicksort1826031517
	sslittle-na-sstrix-gcc -Wall -O3 -funroll-loops  -DRANDOM_SIZE=4194304 -DSEED=0 -DSORT=cache_quicksort cache_quicksort1240004332.c simpleMain.c -o cache_quicksort1826031517
	sim-cache -cache:dl1 dl1:256:32:1:l -cache:dl2 dl2:131072:32:1:l -cache:il1 il1:256:32:1:l -cache:il2 dl2 cache_quicksort1826031517
	sim-cache -cache:dl1 dl1:256:32:1:l -cache:dl2 dl2:65536:32:1:l -cache:il1 il1:256:32:1:l -cache:il2 dl2 cache_quicksort1826031517
	sim-cache -cache:dl1 dl1:1:32:256:l -cache:dl2 dl2:1:32:131072:l -cache:il1 il1:1:32:256:l -cache:il2 dl2 cache_quicksort1826031517
	sim-cache -cache:dl1 dl1:1:32:256:l -cache:dl2 dl2:1:32:65536:l -cache:il1 il1:1:32:256:l -cache:il2 dl2 cache_quicksort1826031517
	sim-bpred -bpred bimod -bpred:bimod 512 cache_quicksort1826031517
	sim-bpred -bpred bimod -bpred:bimod 1024 cache_quicksort1826031517
	sim-bpred -bpred bimod -bpred:bimod 2048 cache_quicksort1826031517
	sim-bpred -bpred 2lev -bpred:2lev 1 512 10 1 cache_quicksort1826031517
	sim-bpred -bpred 2lev -bpred:2lev 1 1024 10 1 cache_quicksort1826031517
	sim-bpred -bpred 2lev -bpred:2lev 1 2048 10 1 cache_quicksort1826031517
	sim-bpred -bpred 2lev -bpred:2lev 1 4096 10 1 cache_quicksort1826031517
