#set_size_in_keys sim_num_insn sim_num_refs sim_elapsed_time sim_inst_rate sim_num_branches sim_IPB bpred_bimod.lookups bpred_bimod.updates bpred_bimod.addr_hits bpred_bimod.dir_hits bpred_bimod.misses bpred_bimod.jr_hits bpred_bimod.jr_seen bpred_bimod.jr_non_ras_hits.PP bpred_bimod.jr_non_ras_seen.PP bpred_bimod.bpred_addr_rate bpred_bimod.bpred_dir_rate bpred_bimod.bpred_jr_rate bpred_bimod.bpred_jr_non_ras_rate.PP bpred_bimod.retstack_pushes bpred_bimod.retstack_pops bpred_bimod.used_ras.PP bpred_bimod.ras_hits.PP bpred_bimod.ras_rate.PP
4096 243.749267578125 71.99560546875 0.000244140625 998397.0000 35.131591796875 6.9382 35.131591796875 35.131591796875 28.7958984375 28.8330078125 6.298583984375 2.092529296875 2.0927734375 0 0 0.8197 0.8207 0.9999 <error: 2.09326171875 2.0927734375 2.0927734375 2.092529296875 0.9999 
8192 246.568237304688 73.2662353515625 0.0001220703125 2019887.0000 36.1563720703125 6.8195 36.1563720703125 36.1563720703125 29.7947998046875 29.81396484375 6.3424072265625 2.0467529296875 2.046875 0 0 0.8241 0.8246 0.9999 <error: 2.047119140625 2.046875 2.046875 2.0467529296875 0.9999 
16384 273.778076171875 79.5514526367188 6.103515625e-05 4485580.0000 38.6549072265625 7.0826 38.6549072265625 38.6549072265625 31.3820190429688 31.3916015625 7.2633056640625 2.02386474609375 2.02392578125 0 0 0.8119 0.8121 1.0000 <error: 2.0240478515625 2.02392578125 2.02392578125 2.02386474609375 1.0000 
32768 277.867797851562 81.496826171875 6.103515625e-05 4552586.0000 39.8857727050781 6.9666 39.8857727050781 39.8857727050781 32.5445251464844 32.54931640625 7.33645629882812 2.01242065429688 2.012451171875 0 0 0.8159 0.8161 1.0000 <error: 2.01251220703125 2.012451171875 2.012451171875 2.01242065429688 1.0000 
65536 306.00846862793 88.1803131103516 6.103515625e-05 5013642.7500 42.5328063964844 7.1946 42.5328063964844 42.5328063964844 34.2880096435547 34.2904357910156 8.24237060546875 2.00669860839844 2.0067138671875 0 0 0.8062 0.8062 1.0000 <error: 2.00674438476562 2.0067138671875 2.0067138671875 2.00669860839844 1.0000 
131072 310.756202697754 90.3663787841797 6.866455078125e-05 4525715.2222 43.8651275634766 7.0844 43.8651275634766 43.8651275634766 35.5273513793945 35.5285491943359 8.33657836914062 2.00383758544922 2.00384521484375 0 0 0.8099 0.8099 1.0000 <error: 2.00386047363281 2.00384521484375 2.00384521484375 2.00383758544922 1.0000 
262144 327.153285980225 94.8260116577148 7.2479248046875e-05 4513751.1053 45.8510971069336 7.1351 45.8510971069336 45.8510971069336 37.0159149169922 37.0165138244629 8.8345832824707 2.00240707397461 2.00241088867188 0 0 0.8073 0.8073 1.0000 <error: 2.00241851806641 2.00241088867188 2.00241088867188 2.00240707397461 1.0000 
524288 456.86544418335 129.395671844482 9.918212890625e-05 4606328.2692 65.708101272583 6.9530 65.708101272583 65.708101272583 53.7709980010986 53.7714385986328 11.9366626739502 3.00174903869629 3.00175094604492 0 1.9073486328125e-06 0.8183 0.8183 1.0000 0.0000 3.00175285339355 3.00174903869629 3.00174903869629 3.00174903869629 1.0000 
1048576 481.971478462219 137.274000167847 0.000105857849121094 4553006.5315 70.6977767944336 6.8173 70.6977767944336 70.6977767944336 58.4758882522583 58.4761095046997 12.2216672897339 3.00136470794678 3.00136566162109 0 9.5367431640625e-07 0.8271 0.8271 1.0000 0.0000 3.00136661529541 3.00136470794678 3.00136470794678 3.00136470794678 1.0000 
2097152 524.493473529816 148.165477275848 5.7220458984375e-05 9166187.8083 75.9239163398743 6.9081 75.9239163398743 75.9239163398743 62.0043354034424 62.0044474601746 13.9194688796997 3.00117254257202 3.00117301940918 0 4.76837158203125e-07 0.8167 0.8167 1.0000 0.0000 3.00117349624634 3.00117254257202 3.00117254257202 3.00117254257202 1.0000 
4194304 551.951105356216 157.206234931946 6.05583190917969e-05 9114372.9488 81.1137976646423 6.8047 81.1137976646423 81.1137976646423 66.1709477901459 66.1710035800934 14.942794084549 3.00107645988464 3.00107669830322 0 2.38418579101562e-07 0.8158 0.8158 1.0000 0.0000 3.0010769367218 3.00107645988464 3.00107645988464 3.00107645988464 1.0000 
