#set_size_in_keys sim_num_insn sim_num_refs sim_elapsed_time sim_inst_rate il1.accesses il1.hits il1.misses il1.replacements il1.writebacks il1.invalidations il1.miss_rate il1.repl_rate il1.wb_rate il1.inv_rate dl1.accesses dl1.hits dl1.misses dl1.replacements dl1.writebacks dl1.invalidations dl1.miss_rate dl1.repl_rate dl1.wb_rate dl1.inv_rate dl2.accesses dl2.hits dl2.misses dl2.replacements dl2.writebacks dl2.invalidations dl2.miss_rate dl2.repl_rate dl2.wb_rate dl2.inv_rate itlb.accesses itlb.hits itlb.misses itlb.replacements itlb.writebacks itlb.invalidations itlb.miss_rate itlb.repl_rate itlb.wb_rate itlb.inv_rate dtlb.accesses dtlb.hits dtlb.misses dtlb.replacements dtlb.writebacks dtlb.invalidations dtlb.miss_rate dtlb.repl_rate dtlb.wb_rate dtlb.inv_rate ld_text_base ld_text_size ld_data_base ld_data_size ld_stack_base ld_stack_size ld_prog_entry ld_environ_base ld_target_big_endian mem.page_count mem.page_mem mem.ptab_misses mem.ptab_accesses mem.ptab_miss_rate
4096 243.749267578125 71.99560546875 0.00244140625 99839.7000 243.749267578125 243.612060546875 0.13720703125 0.07470703125 0 0 0.0006 0.0003 0.0000 0.0000 72.0126953125 68.67529296875 3.33740234375 3.27490234375 1.828857421875 0 0.0463 0.0455 0.0254 0.0000 5.303466796875 4.8251953125 0.478271484375 0 0 0 0.0902 0.0000 0.0000 0.0000 243.749267578125 243.746337890625 0.0029296875 0 0 0 0.0000 0.0000 0.0000 0.0000 72.0126953125 72.009033203125 0.003662109375 0 0 0 0.0001 0.0000 0.0000 0.0000 0x00400000 11.19140625 0x10000000 1 0x7fffc000 4 0x00400140 0x7fff8000 0 0.006591796875 108k 0.006591796875 1187.45556640625 0.0000 
8192 246.568237304688 73.2662353515625 0.001953125 126242.9375 246.568237304688 246.495483398438 0.07275390625 0.04150390625 0 0 0.0003 0.0002 0.0000 0.0000 73.2747802734375 69.9945068359375 3.2802734375 3.2490234375 1.7900390625 0 0.0448 0.0443 0.0244 0.0000 5.14306640625 4.7762451171875 0.3668212890625 0 0 0 0.0713 0.0000 0.0000 0.0000 246.568237304688 246.566772460938 0.00146484375 0 0 0 0.0000 0.0000 0.0000 0.0000 73.2747802734375 73.27197265625 0.0028076171875 0 0 0 0.0000 0.0000 0.0000 0.0000 0x00400000 5.599609375 0x10000000 0.5 0x7fffc000 2 0x00400140 0x7fff8000 0 0.0042724609375 140k 0.0042724609375 1167.0625 0.0000 
16384 273.778076171875 79.5514526367188 0.00164794921875 166132.5926 273.778076171875 273.743041992188 0.0350341796875 0.0194091796875 0 0 0.0001 0.0001 0.0000 0.0000 79.5557250976562 75.802734375 3.75299072265625 3.73736572265625 2.0223388671875 0 0.0472 0.0470 0.0254 0.0000 5.81036376953125 5.50286865234375 0.3074951171875 0 0 0 0.0529 0.0000 0.0000 0.0000 273.778076171875 273.77734375 0.000732421875 0 0 0 0.0000 0.0000 0.0000 0.0000 79.5557250976562 79.5533447265625 0.00238037109375 0 0 0 0.0000 0.0000 0.0000 0.0000 0x00400000 2.80078125 0x10000000 0.25 0x7fffc000 1 0x00400140 0x7fff8000 0 0.00311279296875 204k 0.00311279296875 1271.349609375 0.0000 
32768 277.867797851562 81.496826171875 0.001434326171875 193727.0638 277.867797851562 277.849456787109 0.018341064453125 0.010528564453125 0 0 0.0001 0.0000 0.0000 0.0000 81.4989624023438 77.7608032226562 3.7381591796875 3.7303466796875 2.01177978515625 0 0.0459 0.0458 0.0247 0.0000 5.76828002929688 5.48898315429688 0.279296875 0 0 0 0.0484 0.0000 0.0000 0.0000 277.867797851562 277.867431640625 0.0003662109375 0 0 0 0.0000 0.0000 0.0000 0.0000 81.4989624023438 81.4967956542969 0.002166748046875 0 0 0 0.0000 0.0000 0.0000 0.0000 0x00400000 1.4013671875 0x10000000 0.125 0x7fffc000 0.5 0x00400140 0x7fff8000 0 0.002532958984375 332k 0.002532958984375 1283.03790283203 0.0000 
65536 306.00846862793 88.1803131103516 0.0012969970703125 235936.1294 306.00846862793 305.999694824219 0.0087738037109375 0.0048675537109375 0 0 0.0000 0.0000 0.0000 0.0000 88.1813812255859 83.9494934082031 4.23188781738281 4.22798156738281 2.25820922851562 0 0.0480 0.0479 0.0256 0.0000 6.49887084960938 6.23448181152344 0.264389038085938 0 0 0 0.0407 0.0000 0.0000 0.0000 306.00846862793 306.008285522461 0.00018310546875 0 0 0 0.0000 0.0000 0.0000 0.0000 88.1813812255859 88.1784362792969 0.0029449462890625 0.0009918212890625 0.000701904296875 0 0.0000 0.0000 0.0000 0.0000 0x00400000 0.70068359375 0x10000000 0.0625 0x7fffc000 0.25 0x00400140 0x7fff8000 0 0.0022430419921875 588k 0.0022430419921875 1404.68103027344 0.0000 
131072 310.756202697754 90.3663787841797 0.00112152099609375 277084.6054 310.756202697754 310.751617431641 0.00458526611328125 0.00263214111328125 0 0 0.0000 0.0000 0.0000 0.0000 90.3669128417969 86.1393051147461 4.22760772705078 4.22565460205078 2.25471496582031 0 0.0468 0.0468 0.0250 0.0000 6.48690795898438 6.22958374023438 0.25732421875 0 0 0 0.0397 0.0000 0.0000 0.0000 310.756202697754 310.75611114502 9.1552734375e-05 0 0 0 0.0000 0.0000 0.0000 0.0000 90.3669128417969 90.3504028320312 0.016510009765625 0.015533447265625 0.00930023193359375 0 0.0002 0.0002 0.0001 0.0000 0x00400000 0.350341796875 0x10000000 0.03125 0x7fffc000 0.125 0x00400140 0x7fff8000 0 0.00209808349609375 1100k 0.00209808349609375 1425.90083312988 0.0000 
262144 327.153285980225 94.8260116577148 0.00080108642578125 408387.0048 327.153285980225 327.150993347168 0.00229263305664062 0.00131607055664062 0 0 0.0000 0.0000 0.0000 0.0000 94.8262786865234 90.3504524230957 4.47582626342773 4.47484970092773 2.37870025634766 0 0.0472 0.0472 0.0251 0.0000 6.85681915283203 6.45645904541016 0.400360107421875 0.150360107421875 0.148941040039062 0 0.0584 0.0219 0.0217 0.0000 327.153285980225 327.153240203857 4.57763671875e-05 0 0 0 0.0000 0.0000 0.0000 0.0000 94.8262786865234 94.8075904846191 0.0186882019042969 0.0181999206542969 0.0105705261230469 0 0.0002 0.0002 0.0001 0.0000 0x00400000 0.1751708984375 0x10000000 0.015625 0x7fffc000 0.0625 0x00400140 0x7fff8000 0 0.00202560424804688 2124k 0.00202560424804688 1499.33679962158 0.0000 
524288 456.86544418335 129.395671844482 0.000562667846679688 811962.9492 456.86544418335 456.863763809204 0.00168037414550781 0.00119209289550781 0 0 0.0000 0.0000 0.0000 0.0000 129.395805358887 124.4167137146 4.97909164428711 4.97860336303711 2.63119506835938 0 0.0385 0.0385 0.0203 0.0000 7.61196708679199 6.86142349243164 0.750543594360352 0.625543594360352 0.561124801635742 0 0.0986 0.0822 0.0737 0.0000 456.86544418335 456.865421295166 2.288818359375e-05 0 0 0 0.0000 0.0000 0.0000 0.0000 129.395805358887 129.375406265259 0.0203990936279297 0.0201549530029297 0.0115604400634766 0 0.0002 0.0002 0.0001 0.0000 0x00400000 0.08758544921875 0x10000000 0.0078125 0x7fffc000 0.03125 0x00400140 0x7fff8000 0 0.00200080871582031 4196k 0.00201416015625 2086.78893661499 0.0000 
1048576 481.971478462219 137.274000167847 0.00041961669921875 1148599.3750 481.971478462219 481.970594406128 0.000884056091308594 0.000639915466308594 0 0 0.0000 0.0000 0.0000 0.0000 137.274066925049 132.547911643982 4.72615528106689 4.72591114044189 2.50393962860107 0 0.0344 0.0344 0.0182 0.0000 7.23097896575928 6.48340702056885 0.74757194519043 0.68507194519043 0.590313911437988 0 0.1034 0.0947 0.0816 0.0000 481.971478462219 481.971467018127 1.1444091796875e-05 0 0 0 0.0000 0.0000 0.0000 0.0000 137.274066925049 137.253612518311 0.0204544067382812 0.0203323364257812 0.0116071701049805 0 0.0001 0.0001 0.0001 0.0000 0x00400000 0.043792724609375 0x10000000 0.00390625 0x7fffc000 0.015625 0x00400140 0x7fff8000 0 0.00197696685791016 8292k 0.0776243209838867 2202.70182228088 0.0000 
2097152 524.493473529816 148.165477275848 0.000182151794433594 2879430.7251 524.493473529816 524.493040084839 0.000433444976806641 0.000311374664306641 0 0 0.0000 0.0000 0.0000 0.0000 148.165510654449 143.189195156097 4.97631549835205 4.97619342803955 2.62948703765869 0 0.0336 0.0336 0.0177 0.0000 7.60623598098755 6.85975790023804 0.746478080749512 0.715228080749512 0.605365753173828 0 0.0981 0.0940 0.0796 0.0000 524.493473529816 524.49346780777 5.7220458984375e-06 0 0 0 0.0000 0.0000 0.0000 0.0000 148.165510654449 148.137303352356 0.0282073020935059 0.0281462669372559 0.0116324424743652 0 0.0002 0.0002 0.0001 0.0000 0x00400000 0.0218963623046875 0x10000000 0.001953125 0x7fffc000 0.0078125 0x00400140 0x7fff8000 0 0.0019679069519043 16508k 0.0394067764282227 2394.43880271912 0.0000 
4194304 551.951105356216 157.206234931946 0.000170469284057617 3237833.1874 551.951105356216 551.950883865356 0.000221490859985352 0.000160455703735352 0 0 0.0000 0.0000 0.0000 0.0000 157.206251621246 152.480782985687 4.72546863555908 4.72540760040283 2.50378656387329 0 0.0301 0.0301 0.0159 0.0000 7.22947669029236 6.48365116119385 0.745825529098511 0.730200529098511 0.612765789031982 0 0.1032 0.1010 0.0848 0.0000 551.951105356216 551.951102495193 2.86102294921875e-06 0 0 0 0.0000 0.0000 0.0000 0.0000 157.206251621246 157.095696926117 0.110554695129395 0.11052417755127 0.0116374492645264 0 0.0007 0.0007 0.0001 0.0000 0x00400000 0.0109481811523438 0x10000000 0.0009765625 0x7fffc000 0.00390625 0x00400140 0x7fff8000 0 0.00196337699890137 32940k 0.020876407623291 2522.28386831284 0.0000 
