#set_size_in_keys sim_num_insn sim_num_refs sim_elapsed_time sim_inst_rate sim_num_branches sim_IPB bpred_bimod.lookups bpred_bimod.updates bpred_bimod.addr_hits bpred_bimod.dir_hits bpred_bimod.misses bpred_bimod.jr_hits bpred_bimod.jr_seen bpred_bimod.jr_non_ras_hits.PP bpred_bimod.jr_non_ras_seen.PP bpred_bimod.bpred_addr_rate bpred_bimod.bpred_dir_rate bpred_bimod.bpred_jr_rate bpred_bimod.bpred_jr_non_ras_rate.PP bpred_bimod.retstack_pushes bpred_bimod.retstack_pops bpred_bimod.used_ras.PP bpred_bimod.ras_hits.PP bpred_bimod.ras_rate.PP
4096 243.749267578125 71.99560546875 0.000244140625 998397.0000 35.131591796875 6.9382 35.131591796875 35.131591796875 28.794921875 28.832275390625 6.29931640625 2.092529296875 2.0927734375 0 0 0.8196 0.8207 0.9999 <error: 2.09326171875 2.0927734375 2.0927734375 2.092529296875 0.9999 
8192 246.568237304688 73.2662353515625 0.0001220703125 2019887.0000 36.1563720703125 6.8195 36.1563720703125 36.1563720703125 29.7945556640625 29.8134765625 6.3428955078125 2.0467529296875 2.046875 0 0 0.8240 0.8246 0.9999 <error: 2.047119140625 2.046875 2.046875 2.0467529296875 0.9999 
16384 273.778076171875 79.5514526367188 6.103515625e-05 4485580.0000 38.6549072265625 7.0826 38.6549072265625 38.6549072265625 31.3818969726562 31.3915405273438 7.26336669921875 2.02386474609375 2.02392578125 0 0 0.8118 0.8121 1.0000 <error: 2.0240478515625 2.02392578125 2.02392578125 2.02386474609375 1.0000 
32768 277.867797851562 81.496826171875 6.103515625e-05 4552586.0000 39.8857727050781 6.9666 39.8857727050781 39.8857727050781 32.5443725585938 32.5491333007812 7.33663940429688 2.01242065429688 2.012451171875 0 0 0.8159 0.8161 1.0000 <error: 2.01251220703125 2.012451171875 2.012451171875 2.01242065429688 1.0000 
65536 306.00846862793 88.1803131103516 7.62939453125e-05 4010914.2000 42.5328063964844 7.1946 42.5328063964844 42.5328063964844 34.2879333496094 34.2903594970703 8.24244689941406 2.00669860839844 2.0067138671875 0 0 0.8062 0.8062 1.0000 <error: 2.00674438476562 2.0067138671875 2.0067138671875 2.00669860839844 1.0000 
131072 310.756202697754 90.3663787841797 6.866455078125e-05 4525715.2222 43.8651275634766 7.0844 43.8651275634766 43.8651275634766 35.5273132324219 35.5285110473633 8.33661651611328 2.00383758544922 2.00384521484375 0 0 0.8099 0.8099 1.0000 <error: 2.00386047363281 2.00384521484375 2.00384521484375 2.00383758544922 1.0000 
262144 327.153285980225 94.8260116577148 6.866455078125e-05 4764515.0556 45.8510971069336 7.1351 45.8510971069336 45.8510971069336 37.0158958435059 37.0165023803711 8.8345947265625 2.00240707397461 2.00241088867188 0 0 0.8073 0.8073 1.0000 <error: 2.00241851806641 2.00241088867188 2.00241088867188 2.00240707397461 1.0000 
524288 456.86544418335 129.395671844482 0.000102996826171875 4435723.5185 65.708101272583 6.9530 65.708101272583 65.708101272583 53.7709827423096 53.7714214324951 11.9366798400879 3.00174903869629 3.00175094604492 0 1.9073486328125e-06 0.8183 0.8183 1.0000 0.0000 3.00175285339355 3.00174903869629 3.00174903869629 3.00174903869629 1.0000 
1048576 481.971478462219 137.274000167847 0.000109672546386719 4394641.0870 70.6977767944336 6.8173 70.6977767944336 70.6977767944336 58.4758787155151 58.4760999679565 12.2216768264771 3.00136470794678 3.00136566162109 0 9.5367431640625e-07 0.8271 0.8271 1.0000 0.0000 3.00136661529541 3.00136470794678 3.00136470794678 3.00136470794678 1.0000 
2097152 524.493473529816 148.165477275848 5.7220458984375e-05 9166187.8083 75.9239163398743 6.9081 75.9239163398743 75.9239163398743 62.0043306350708 62.0044417381287 13.9194746017456 3.00117254257202 3.00117301940918 0 4.76837158203125e-07 0.8167 0.8167 1.0000 0.0000 3.00117349624634 3.00117254257202 3.00117254257202 3.00117254257202 1.0000 
4194304 551.951105356216 157.206234931946 6.05583190917969e-05 9114372.9488 81.1137976646423 6.8047 81.1137976646423 81.1137976646423 66.1709454059601 66.1710011959076 14.9427964687347 3.00107645988464 3.00107669830322 0 2.38418579101562e-07 0.8158 0.8158 1.0000 0.0000 3.0010769367218 3.00107645988464 3.00107645988464 3.00107645988464 1.0000 
