#set_size_in_keys sim_num_insn sim_num_refs sim_elapsed_time sim_inst_rate il1.accesses il1.hits il1.misses il1.replacements il1.writebacks il1.invalidations il1.miss_rate il1.repl_rate il1.wb_rate il1.inv_rate dl1.accesses dl1.hits dl1.misses dl1.replacements dl1.writebacks dl1.invalidations dl1.miss_rate dl1.repl_rate dl1.wb_rate dl1.inv_rate dl2.accesses dl2.hits dl2.misses dl2.replacements dl2.writebacks dl2.invalidations dl2.miss_rate dl2.repl_rate dl2.wb_rate dl2.inv_rate itlb.accesses itlb.hits itlb.misses itlb.replacements itlb.writebacks itlb.invalidations itlb.miss_rate itlb.repl_rate itlb.wb_rate itlb.inv_rate dtlb.accesses dtlb.hits dtlb.misses dtlb.replacements dtlb.writebacks dtlb.invalidations dtlb.miss_rate dtlb.repl_rate dtlb.wb_rate dtlb.inv_rate ld_text_base ld_text_size ld_data_base ld_data_size ld_stack_base ld_stack_size ld_prog_entry ld_environ_base ld_target_big_endian mem.page_count mem.page_mem mem.ptab_misses mem.ptab_accesses mem.ptab_miss_rate
4096 219.8154296875 47.149169921875 0.001708984375 128623.4286 219.8154296875 219.727294921875 0.088134765625 0.025634765625 0 0 0.0004 0.0001 0.0000 0.0000 51.168701171875 49.613525390625 1.55517578125 1.49267578125 1.440673828125 0 0.0304 0.0292 0.0282 0.0000 3.083984375 2.7705078125 0.3134765625 0 0 0 0.1016 0.0000 0.0000 0.0000 219.8154296875 219.812744140625 0.002685546875 0 0 0 0.0000 0.0000 0.0000 0.0000 51.168701171875 51.166015625 0.002685546875 0 0 0 0.0001 0.0000 0.0000 0.0000 0x00400000 18.33203125 0x10000000 2.0126953125 0x7fffc000 4 0x00400140 0x7fff8000 0 0.00732421875 120k 0.00732421875 1095.25390625 0.0000 
8192 243.421508789062 51.130859375 0.001220703125 199410.9000 243.421508789062 243.37744140625 0.0440673828125 0.0128173828125 0 0 0.0002 0.0001 0.0000 0.0000 55.140625 53.1541748046875 1.9864501953125 1.9552001953125 1.8076171875 0 0.0360 0.0355 0.0328 0.0000 3.838134765625 3.618896484375 0.21923828125 0 0 0 0.0571 0.0000 0.0000 0.0000 243.421508789062 243.420166015625 0.0013427734375 0 0 0 0.0000 0.0000 0.0000 0.0000 55.140625 55.1387939453125 0.0018310546875 0 0 0 0.0000 0.0000 0.0000 0.0000 0x00400000 9.169921875 0x10000000 1.00634765625 0x7fffc000 2 0x00400140 0x7fff8000 0 0.004150390625 136k 0.004150390625 1140.81811523438 0.0000 
16384 278.366088867188 56.2092895507812 0.0009765625 285046.8750 278.366088867188 278.344421386719 0.02166748046875 0.00604248046875 0 0 0.0001 0.0000 0.0000 0.0000 60.2141723632812 57.6605224609375 2.55364990234375 2.53802490234375 2.28131103515625 0 0.0424 0.0421 0.0379 0.0000 4.85662841796875 4.68505859375 0.17156982421875 0 0 0 0.0353 0.0000 0.0000 0.0000 278.366088867188 278.365417480469 0.00067138671875 0 0 0 0.0000 0.0000 0.0000 0.0000 60.2141723632812 60.2127685546875 0.00140380859375 0 0 0 0.0000 0.0000 0.0000 0.0000 0x00400000 4.5859375 0x10000000 0.503173828125 0x7fffc000 1 0x00400140 0x7fff8000 0 0.0025634765625 168k 0.0025634765625 1262.32397460938 0.0000 
32768 303.868438720703 60.7448425292969 0.0008544921875 355612.8929 303.868438720703 303.857360839844 0.011077880859375 0.003265380859375 0 0 0.0000 0.0000 0.0000 0.0000 64.7472839355469 61.5976257324219 3.149658203125 3.141845703125 2.77169799804688 0 0.0486 0.0485 0.0428 0.0000 5.93243408203125 5.7838134765625 0.14862060546875 0 0 0 0.0251 0.0000 0.0000 0.0000 303.868438720703 303.868103027344 0.000335693359375 0 0 0 0.0000 0.0000 0.0000 0.0000 64.7472839355469 64.74609375 0.001190185546875 0 0 0 0.0000 0.0000 0.0000 0.0000 0x00400000 2.29345703125 0x10000000 0.2515869140625 0x7fffc000 0.5 0x00400140 0x7fff8000 0 0.00177001953125 232k 0.00177001953125 1359.18688964844 0.0000 
65536 324.234024047852 70.6089172363281 0.0008087158203125 400924.5472 324.234024047852 324.228485107422 0.0055389404296875 0.0016326904296875 0 0 0.0000 0.0000 0.0000 0.0000 74.6101379394531 70.9293212890625 3.68081665039062 3.67691040039062 3.19081115722656 0 0.0493 0.0493 0.0428 0.0000 6.87716674804688 6.7403564453125 0.136810302734375 0 0 0 0.0199 0.0000 0.0000 0.0000 324.234024047852 324.233856201172 0.0001678466796875 0 0 0 0.0000 0.0000 0.0000 0.0000 74.6101379394531 74.6090545654297 0.0010833740234375 0 0 0 0.0000 0.0000 0.0000 0.0000 0x00400000 1.146728515625 0x10000000 0.12579345703125 0x7fffc000 0.25 0x00400140 0x7fff8000 0 0.001373291015625 360k 0.001373291015625 1453.26565551758 0.0000 
131072 361.584411621094 77.4178695678711 0.000762939453125 473935.9200 361.584411621094 361.581649780273 0.0027618408203125 0.0008087158203125 0 0 0.0000 0.0000 0.0000 0.0000 81.4184799194336 77.0608520507812 4.35762786865234 4.35567474365234 3.74906158447266 0 0.0535 0.0535 0.0460 0.0000 8.10945129394531 7.97855377197266 0.130897521972656 0 0 0 0.0161 0.0000 0.0000 0.0000 361.584411621094 361.584327697754 8.392333984375e-05 0 0 0 0.0000 0.0000 0.0000 0.0000 81.4184799194336 81.4169692993164 0.0015106201171875 0.0005340576171875 0.000518798828125 0 0.0000 0.0000 0.0000 0.0000 0x00400000 0.5733642578125 0x10000000 0.062896728515625 0x7fffc000 0.125 0x00400140 0x7fff8000 0 0.0011749267578125 616k 0.0011749267578125 1612.72924804688 0.0000 
262144 371.939960479736 76.6944198608398 0.0021209716796875 175363.0018 371.939960479736 371.938579559326 0.00138092041015625 0.00040435791015625 0 0 0.0000 0.0000 0.0000 0.0000 80.6947250366211 75.6445655822754 5.0501594543457 5.0491828918457 4.31851196289062 0 0.0626 0.0626 0.0535 0.0000 9.37005233764648 9.24210357666016 0.127948760986328 0 0 0 0.0137 0.0000 0.0000 0.0000 371.939960479736 371.939918518066 4.1961669921875e-05 0 0 0 0.0000 0.0000 0.0000 0.0000 80.6947250366211 80.6756210327148 0.01910400390625 0.01861572265625 0.0183067321777344 0 0.0002 0.0002 0.0002 0.0000 0x00400000 0.28668212890625 0x10000000 0.0314483642578125 0x7fffc000 0.0625 0x00400140 0x7fff8000 0 0.00107574462890625 1128k 0.00107574462890625 1650.926612854 0.0000 
524288 399.680500030518 81.1172027587891 0.00090789794921875 440226.2395 399.680500030518 399.679809570312 0.000690460205078125 0.000202178955078125 0 0 0.0000 0.0000 0.0000 0.0000 85.1173553466797 79.3495540618896 5.76780128479004 5.76731300354004 4.9134578704834 0 0.0678 0.0678 0.0577 0.0000 10.6819496154785 10.5554752349854 0.126474380493164 0 0 0 0.0118 0.0000 0.0000 0.0000 399.680500030518 399.680479049683 2.09808349609375e-05 0 0 0 0.0000 0.0000 0.0000 0.0000 85.1173553466797 85.0897731781006 0.0275821685791016 0.0273380279541016 0.0262832641601562 0 0.0003 0.0003 0.0003 0.0000 0x00400000 0.143341064453125 0x10000000 0.0157241821289062 0x7fffc000 0.03125 0x00400140 0x7fff8000 0 0.00102615356445312 2152k 0.00102615356445312 1769.84537124634 0.0000 
1048576 423.871543884277 84.3878154754639 0.00164985656738281 256914.1780 423.871543884277 423.871198654175 0.000345230102539062 0.000101089477539062 0 0 0.0000 0.0000 0.0000 0.0000 88.3878917694092 81.9248695373535 6.46302223205566 6.46277809143066 5.48708724975586 0 0.0731 0.0731 0.0621 0.0000 11.9504547119141 11.3673791885376 0.583075523376465 0.458075523376465 0.457940101623535 0 0.0488 0.0383 0.0383 0.0000 423.871543884277 423.87153339386 1.04904174804688e-05 0 0 0 0.0000 0.0000 0.0000 0.0000 88.3878917694092 88.2465734481812 0.141318321228027 0.141196250915527 0.120641708374023 0 0.0016 0.0016 0.0014 0.0000 0x00400000 0.0716705322265625 0x10000000 0.00786209106445312 0x7fffc000 0.015625 0x00400140 0x7fff8000 0 0.00100135803222656 4200k 0.00100135803222656 1872.70628929138 0.0000 
2097152 455.223992347717 91.094021320343 0.00173425674438477 262489.3885 455.223992347717 455.223819732666 0.000172615051269531 5.05447387695312e-05 0 0 0.0000 0.0000 0.0000 0.0000 95.0940594673157 88.1701989173889 6.92386054992676 6.92373847961426 5.87493085861206 0 0.0728 0.0728 0.0618 0.0000 12.7989640235901 10.357027053833 2.44193696975708 2.37943696975708 2.33186626434326 0 0.1908 0.1859 0.1822 0.0000 455.223992347717 455.223987102509 5.24520874023438e-06 0 0 0 0.0000 0.0000 0.0000 0.0000 95.0940594673157 95.0483965873718 0.0456628799438477 0.0456018447875977 0.0428543090820312 0 0.0005 0.0005 0.0005 0.0000 0x00400000 0.0358352661132812 0x10000000 0.00393104553222656 0x7fffc000 0.0078125 0x00400140 0x7fff8000 0 0.000988960266113281 8296k 0.000988960266113281 2011.30625343323 0.0000 
4194304 475.163735151291 92.0518789291382 0.00160002708435059 296972.3074 475.163735151291 475.163648843765 8.63075256347656e-05 2.52723693847656e-05 0 0 0.0000 0.0000 0.0000 0.0000 96.0518980026245 88.6805593967438 7.37133860588074 7.37127757072449 6.23836207389832 0 0.0767 0.0767 0.0649 0.0000 13.6097869873047 10.6717505455017 2.93803644180298 2.90678644180298 2.76004481315613 0 0.2159 0.2136 0.2028 0.0000 475.163735151291 475.163732528687 2.62260437011719e-06 0 0 0 0.0000 0.0000 0.0000 0.0000 96.0518980026245 95.996414899826 0.0554831027984619 0.0554525852203369 0.0517191886901855 0 0.0006 0.0006 0.0005 0.0000 0x00400000 0.0179176330566406 0x10000000 0.00196552276611328 0x7fffc000 0.00390625 0x00400140 0x7fff8000 0 0.000982761383056641 16488k 0.000982761383056641 2092.86981916428 0.0000 
