#set_size_in_keys sim_num_insn sim_num_refs sim_elapsed_time sim_inst_rate il1.accesses il1.hits il1.misses il1.replacements il1.writebacks il1.invalidations il1.miss_rate il1.repl_rate il1.wb_rate il1.inv_rate dl1.accesses dl1.hits dl1.misses dl1.replacements dl1.writebacks dl1.invalidations dl1.miss_rate dl1.repl_rate dl1.wb_rate dl1.inv_rate dl2.accesses dl2.hits dl2.misses dl2.replacements dl2.writebacks dl2.invalidations dl2.miss_rate dl2.repl_rate dl2.wb_rate dl2.inv_rate itlb.accesses itlb.hits itlb.misses itlb.replacements itlb.writebacks itlb.invalidations itlb.miss_rate itlb.repl_rate itlb.wb_rate itlb.inv_rate dtlb.accesses dtlb.hits dtlb.misses dtlb.replacements dtlb.writebacks dtlb.invalidations dtlb.miss_rate dtlb.repl_rate dtlb.wb_rate dtlb.inv_rate ld_text_base ld_text_size ld_data_base ld_data_size ld_stack_base ld_stack_size ld_prog_entry ld_environ_base ld_target_big_endian mem.page_count mem.page_mem mem.ptab_misses mem.ptab_accesses mem.ptab_miss_rate
4096 219.8154296875 47.149169921875 0.000244140625 900364.0000 219.8154296875 219.7138671875 0.1015625 0.047119140625 0 0 0.0005 0.0002 0.0000 0.0000 51.168701171875 49.71240234375 1.456298828125 1.393798828125 1.364013671875 0 0.0285 0.0272 0.0267 0.0000 2.921875 2.607666015625 0.314208984375 0.016845703125 0.0009765625 0 0.1075 0.0058 0.0003 0.0000 219.8154296875 219.812744140625 0.002685546875 0 0 0 0.0000 0.0000 0.0000 0.0000 51.168701171875 51.166015625 0.002685546875 0 0 0 0.0001 0.0000 0.0000 0.0000 0x00400000 18.33203125 0x10000000 2.0126953125 0x7fffc000 4 0x00400140 0x7fff8000 0 0.00732421875 120k 0.00732421875 1095.25390625 0.0000 
8192 243.421508789062 51.130859375 0.0001220703125 1994109.0000 243.421508789062 243.370727539062 0.05078125 0.0235595703125 0 0 0.0002 0.0001 0.0000 0.0000 55.140625 53.2366943359375 1.9039306640625 1.8726806640625 1.7410888671875 0 0.0345 0.0340 0.0316 0.0000 3.69580078125 3.4761962890625 0.2196044921875 0.008544921875 0.0003662109375 0 0.0594 0.0023 0.0001 0.0000 243.421508789062 243.420166015625 0.0013427734375 0 0 0 0.0000 0.0000 0.0000 0.0000 55.140625 55.1387939453125 0.0018310546875 0 0 0 0.0000 0.0000 0.0000 0.0000 0x00400000 9.169921875 0x10000000 1.00634765625 0x7fffc000 2 0x00400140 0x7fff8000 0 0.004150390625 136k 0.004150390625 1140.81811523438 0.0000 
16384 278.366088867188 56.2092895507812 6.103515625e-05 4560750.0000 278.366088867188 278.341369628906 0.02471923828125 0.0113525390625 0 0 0.0001 0.0000 0.0000 0.0000 60.2141723632812 57.7434692382812 2.470703125 2.455078125 2.21649169921875 0 0.0410 0.0408 0.0368 0.0000 4.7119140625 4.5401611328125 0.1717529296875 0.0042724609375 0.00018310546875 0 0.0365 0.0009 0.0000 0.0000 278.366088867188 278.365417480469 0.00067138671875 0 0 0 0.0000 0.0000 0.0000 0.0000 60.2141723632812 60.2127685546875 0.00140380859375 0 0 0 0.0000 0.0000 0.0000 0.0000 0x00400000 4.5859375 0x10000000 0.503173828125 0x7fffc000 1 0x00400140 0x7fff8000 0 0.0025634765625 168k 0.0025634765625 1262.32397460938 0.0000 
32768 303.868438720703 60.7448425292969 9.1552734375e-05 3319053.6667 303.868438720703 303.855682373047 0.01275634765625 0.005889892578125 0 0 0.0000 0.0000 0.0000 0.0000 64.7472839355469 61.8052368164062 2.94204711914062 2.93423461914062 2.60391235351562 0 0.0454 0.0453 0.0402 0.0000 5.5587158203125 5.4100341796875 0.148681640625 0.00213623046875 6.103515625e-05 0 0.0267 0.0004 0.0000 0.0000 303.868438720703 303.868103027344 0.000335693359375 0 0 0 0.0000 0.0000 0.0000 0.0000 64.7472839355469 64.74609375 0.001190185546875 0 0 0 0.0000 0.0000 0.0000 0.0000 0x00400000 2.29345703125 0x10000000 0.2515869140625 0x7fffc000 0.5 0x00400140 0x7fff8000 0 0.00177001953125 232k 0.00177001953125 1359.18688964844 0.0000 
65536 324.234024047852 70.6089172363281 9.1552734375e-05 3541500.1667 324.234024047852 324.227645874023 0.006378173828125 0.0029449462890625 0 0 0.0000 0.0000 0.0000 0.0000 74.6101379394531 71.1231842041016 3.48695373535156 3.48304748535156 3.027099609375 0 0.0467 0.0467 0.0406 0.0000 6.52043151855469 6.38359069824219 0.1368408203125 0.001068115234375 3.0517578125e-05 0 0.0210 0.0002 0.0000 0.0000 324.234024047852 324.233856201172 0.0001678466796875 0 0 0 0.0000 0.0000 0.0000 0.0000 74.6101379394531 74.6090545654297 0.0010833740234375 0 0 0 0.0000 0.0000 0.0000 0.0000 0x00400000 1.146728515625 0x10000000 0.12579345703125 0x7fffc000 0.25 0x00400140 0x7fff8000 0 0.001373291015625 360k 0.001373291015625 1453.26565551758 0.0000 
131072 361.584411621094 77.4178695678711 9.918212890625e-05 3645660.9231 361.584411621094 361.581230163574 0.00318145751953125 0.00147247314453125 0 0 0.0000 0.0000 0.0000 0.0000 81.4184799194336 77.2445373535156 4.17394256591797 4.17198944091797 3.591064453125 0 0.0513 0.0512 0.0441 0.0000 7.7681884765625 7.63727569580078 0.130912780761719 0.0005340576171875 1.52587890625e-05 0 0.0169 0.0001 0.0000 0.0000 361.584411621094 361.584327697754 8.392333984375e-05 0 0 0 0.0000 0.0000 0.0000 0.0000 81.4184799194336 81.4169692993164 0.0015106201171875 0.0005340576171875 0.000518798828125 0 0.0000 0.0000 0.0000 0.0000 0x00400000 0.5733642578125 0x10000000 0.062896728515625 0x7fffc000 0.125 0x00400140 0x7fff8000 0 0.0011749267578125 616k 0.0011749267578125 1612.72924804688 0.0000 
262144 371.939960479736 76.6944198608398 0.000102996826171875 3611178.8519 371.939960479736 371.938369750977 0.00159072875976562 0.000736236572265625 0 0 0.0000 0.0000 0.0000 0.0000 80.6947250366211 75.9982452392578 4.69647979736328 4.69550323486328 4.02775192260742 0 0.0582 0.0582 0.0499 0.0000 8.72582244873047 8.59786605834961 0.127956390380859 0.00026702880859375 7.62939453125e-06 0 0.0147 0.0000 0.0000 0.0000 371.939960479736 371.939918518066 4.1961669921875e-05 0 0 0 0.0000 0.0000 0.0000 0.0000 80.6947250366211 80.6756210327148 0.01910400390625 0.01861572265625 0.0183067321777344 0 0.0002 0.0002 0.0002 0.0000 0x00400000 0.28668212890625 0x10000000 0.0314483642578125 0x7fffc000 0.0625 0x00400140 0x7fff8000 0 0.00107574462890625 1128k 0.00107574462890625 1650.926612854 0.0000 
524288 399.680500030518 81.1172027587891 0.000768661499023438 519969.4541 399.680500030518 399.679704666138 0.000795364379882812 0.000368118286132812 0 0 0.0000 0.0000 0.0000 0.0000 85.1173553466797 79.7189254760742 5.39842987060547 5.39794158935547 4.60342788696289 0 0.0634 0.0634 0.0541 0.0000 10.0026531219482 9.87617492675781 0.12647819519043 0.000133514404296875 3.814697265625e-06 0 0.0126 0.0000 0.0000 0.0000 399.680500030518 399.680479049683 2.09808349609375e-05 0 0 0 0.0000 0.0000 0.0000 0.0000 85.1173553466797 85.0897731781006 0.0275821685791016 0.0273380279541016 0.0262832641601562 0 0.0003 0.0003 0.0003 0.0000 0x00400000 0.143341064453125 0x10000000 0.0157241821289062 0x7fffc000 0.03125 0x00400140 0x7fff8000 0 0.00102615356445312 2152k 0.00102615356445312 1769.84537124634 0.0000 
1048576 423.871543884277 84.3878154754639 0.000116348266601562 3643127.2787 423.871543884277 423.871146202087 0.000397682189941406 0.000184059143066406 0 0 0.0000 0.0000 0.0000 0.0000 88.3878917694092 82.4076080322266 5.98028373718262 5.98003959655762 5.09280586242676 0 0.0677 0.0677 0.0576 0.0000 11.0734872817993 10.9476432800293 0.12584400177002 0.000844001770019531 0.000655174255371094 0 0.0114 0.0001 0.0001 0.0000 423.871543884277 423.87153339386 1.04904174804688e-05 0 0 0 0.0000 0.0000 0.0000 0.0000 88.3878917694092 88.2465734481812 0.141318321228027 0.141196250915527 0.120641708374023 0 0.0016 0.0016 0.0014 0.0000 0x00400000 0.0716705322265625 0x10000000 0.00786209106445312 0x7fffc000 0.015625 0x00400140 0x7fff8000 0 0.00100135803222656 4200k 0.00100135803222656 1872.70628929138 0.0000 
2097152 455.223992347717 91.094021320343 0.00123882293701172 367464.9369 455.223992347717 455.223793506622 0.000198841094970703 9.20295715332031e-05 0 0 0.0000 0.0000 0.0000 0.0000 95.0940594673157 88.3847646713257 6.70929479598999 6.70917272567749 5.69651365280151 0 0.0706 0.0706 0.0599 0.0000 12.4060072898865 10.0621485710144 2.34385871887207 2.28135871887207 2.25678539276123 0 0.1889 0.1839 0.1819 0.0000 455.223992347717 455.223987102509 5.24520874023438e-06 0 0 0 0.0000 0.0000 0.0000 0.0000 95.0940594673157 95.0483965873718 0.0456628799438477 0.0456018447875977 0.0428543090820312 0 0.0005 0.0005 0.0005 0.0000 0x00400000 0.0358352661132812 0x10000000 0.00393104553222656 0x7fffc000 0.0078125 0x00400140 0x7fff8000 0 0.000988960266113281 8296k 0.000988960266113281 2011.30625343323 0.0000 
4194304 475.163735151291 92.0518789291382 0.000143527984619141 3310599.9252 475.163735151291 475.163635730743 9.94205474853516e-05 4.60147857666016e-05 0 0 0.0000 0.0000 0.0000 0.0000 96.0518980026245 88.7242722511292 7.32762575149536 7.32756471633911 6.20872569084167 0 0.0763 0.0763 0.0646 0.0000 13.5364508628845 10.6757369041443 2.86071395874023 2.82946395874023 2.69709515571594 0 0.2113 0.2090 0.1992 0.0000 475.163735151291 475.163732528687 2.62260437011719e-06 0 0 0 0.0000 0.0000 0.0000 0.0000 96.0518980026245 95.996414899826 0.0554831027984619 0.0554525852203369 0.0517191886901855 0 0.0006 0.0006 0.0005 0.0000 0x00400000 0.0179176330566406 0x10000000 0.00196552276611328 0x7fffc000 0.00390625 0x00400140 0x7fff8000 0 0.000982761383056641 16488k 0.000982761383056641 2092.86981916428 0.0000 
