#set_size_in_keys sim_num_insn sim_num_refs sim_elapsed_time sim_inst_rate sim_num_branches sim_IPB bpred_2lev.lookups bpred_2lev.updates bpred_2lev.addr_hits bpred_2lev.dir_hits bpred_2lev.misses bpred_2lev.jr_hits bpred_2lev.jr_seen bpred_2lev.jr_non_ras_hits.PP bpred_2lev.jr_non_ras_seen.PP bpred_2lev.bpred_addr_rate bpred_2lev.bpred_dir_rate bpred_2lev.bpred_jr_rate bpred_2lev.bpred_jr_non_ras_rate.PP bpred_2lev.retstack_pushes bpred_2lev.retstack_pops bpred_2lev.used_ras.PP bpred_2lev.ras_hits.PP bpred_2lev.ras_rate.PP
4096 11959.0068359375 4783.27416992188 0.00146484375 8164015.3333 1708.15356445312 7.0011 1708.15356445312 1708.15356445312 1336.55126953125 1336.57861328125 371.574951171875 0.013427734375 0.013671875 0 0 0.7825 0.7825 0.9821 <error: 0.01416015625 0.013671875 0.013671875 0.013427734375 0.9821 
8192 23850.4666748047 9539.37902832031 0.0028076171875 8494914.0435 3407.12829589844 7.0002 3407.12829589844 3407.12829589844 2643.29748535156 2643.31091308594 763.8173828125 0.0067138671875 0.0068359375 0 0 0.7758 0.7758 0.9821 <error: 0.007080078125 0.0068359375 0.0068359375 0.0067138671875 0.9821 
16384 48237.6561279297 19295.0814819336 0.00567626953125 8498126.4301 6890.5361328125 7.0006 6890.5361328125 6890.5361328125 5363.42163085938 5363.42816162109 1527.10797119141 0.00335693359375 0.00341796875 0 0 0.7784 0.7784 0.9821 <error: 0.0035400390625 0.00341796875 0.00341796875 0.00335693359375 0.9821 
32768 95417.5985717773 38158.5664978027 0.01141357421875 8360010.3476 13635.0737609863 6.9980 13635.0737609863 13635.0737609863 10643.6087341309 10643.6123657227 2991.46139526367 0.001678466796875 0.001708984375 0 0 0.7806 0.7806 0.9821 <error: 0.00177001953125 0.001708984375 0.001708984375 0.001678466796875 0.9821 
65536 190882.666564941 76342.8020324707 0.02020263671875 9448403.6526 27273.8910217285 6.9987 27273.8910217285 27273.8910217285 21421.1000671387 21421.1018371582 5852.78918457031 0.0008392333984375 0.0008544921875 0 0 0.7854 0.7854 0.9821 <error: 0.000885009765625 0.0008544921875 0.0008544921875 0.0008392333984375 0.9821 
