#set_size_in_keys sim_num_insn sim_num_refs sim_elapsed_time sim_inst_rate il1.accesses il1.hits il1.misses il1.replacements il1.writebacks il1.invalidations il1.miss_rate il1.repl_rate il1.wb_rate il1.inv_rate dl1.accesses dl1.hits dl1.misses dl1.replacements dl1.writebacks dl1.invalidations dl1.miss_rate dl1.repl_rate dl1.wb_rate dl1.inv_rate dl2.accesses dl2.hits dl2.misses dl2.replacements dl2.writebacks dl2.invalidations dl2.miss_rate dl2.repl_rate dl2.wb_rate dl2.inv_rate itlb.accesses itlb.hits itlb.misses itlb.replacements itlb.writebacks itlb.invalidations itlb.miss_rate itlb.repl_rate itlb.wb_rate itlb.inv_rate dtlb.accesses dtlb.hits dtlb.misses dtlb.replacements dtlb.writebacks dtlb.invalidations dtlb.miss_rate dtlb.repl_rate dtlb.wb_rate dtlb.inv_rate ld_text_base ld_text_size ld_data_base ld_data_size ld_stack_base ld_stack_size ld_prog_entry ld_environ_base ld_target_big_endian mem.page_count mem.page_mem mem.ptab_misses mem.ptab_accesses mem.ptab_miss_rate
4096 11959.0068359375 4783.27416992188 0.00439453125 2721338.4444 11959.0068359375 11958.9260253906 0.080810546875 0.018310546875 0 0 0.0000 0.0000 0.0000 0.0000 4787.29370117188 4733.45361328125 53.840087890625 53.777587890625 53.756103515625 0 0.0112 0.0112 0.0112 0.0000 107.677001953125 107.37109375 0.305908203125 0 0 0 0.0028 0.0000 0.0000 0.0000 11959.0068359375 11959.0043945312 0.00244140625 0 0 0 0.0000 0.0000 0.0000 0.0000 4787.29370117188 4787.291015625 0.002685546875 0 0 0 0.0000 0.0000 0.0000 0.0000 0x00400000 18.1640625 0x10000000 2.0126953125 0x7fffc000 4 0x00400140 0x7fff8000 0 0.00732421875 120k 0.00732421875 57523.2646484375 0.0000 
8192 23850.4666748047 9539.37902832031 0.0076904296875 3101317.8254 23850.4666748047 23850.4261474609 0.04052734375 0.00927734375 0 0 0.0000 0.0000 0.0000 0.0000 9543.38879394531 9327.66198730469 215.726806640625 215.695556640625 215.658081054688 0 0.0226 0.0226 0.0226 0.0000 431.425415039062 431.209838867188 0.215576171875 0 0 0 0.0005 0.0000 0.0000 0.0000 23850.4666748047 23850.4654541016 0.001220703125 0 0 0 0.0000 0.0000 0.0000 0.0000 9543.38879394531 9543.38696289062 0.0018310546875 0 0 0 0.0000 0.0000 0.0000 0.0000 0x00400000 9.0859375 0x10000000 1.00634765625 0x7fffc000 2 0x00400140 0x7fff8000 0 0.004150390625 136k 0.004150390625 114544.992675781 0.0000 
16384 48237.6561279297 19295.0814819336 0.014892578125 3239039.9918 48237.6561279297 48237.6353759766 0.020751953125 0.005126953125 0 0 0.0000 0.0000 0.0000 0.0000 19299.0863647461 18738.6021118164 560.484252929688 560.468627929688 560.416564941406 0 0.0290 0.0290 0.0290 0.0000 1120.92156982422 1120.75067138672 0.1708984375 0 0 0 0.0002 0.0000 0.0000 0.0000 48237.6561279297 48237.6555175781 0.0006103515625 0 0 0 0.0000 0.0000 0.0000 0.0000 19299.0863647461 19299.0849609375 0.00140380859375 0 0 0 0.0000 0.0000 0.0000 0.0000 0x00400000 4.5439453125 0x10000000 0.503173828125 0x7fffc000 1 0x00400140 0x7fff8000 0 0.0025634765625 168k 0.0025634765625 231576.977294922 0.0000 
32768 95417.5985717773 38158.5664978027 0.0289306640625 3298147.5422 95417.5985717773 95417.5884094238 0.010162353515625 0.002349853515625 0 0 0.0000 0.0000 0.0000 0.0000 38162.568939209 36925.2462463379 1237.32269287109 1237.31488037109 1237.04898071289 0 0.0324 0.0324 0.0324 0.0000 2474.3818359375 2474.23416137695 0.147674560546875 0 0 0 0.0001 0.0000 0.0000 0.0000 95417.5985717773 95417.5982666016 0.00030517578125 0 0 0 0.0000 0.0000 0.0000 0.0000 38162.568939209 38162.5677490234 0.001190185546875 0 0 0 0.0000 0.0000 0.0000 0.0000 0x00400000 2.2724609375 0x10000000 0.2515869140625 0x7fffc000 0.5 0x00400140 0x7fff8000 0 0.00177001953125 232k 0.00177001953125 458009.62512207 0.0000 
65536 190882.666564941 76342.8020324707 0.051788330078125 3685823.9352 190882.666564941 190882.661468506 0.005096435546875 0.001190185546875 0 0 0.0000 0.0000 0.0000 0.0000 76346.8032531738 73746.7754974365 2600.0277557373 2600.0238494873 2597.86389160156 0 0.0341 0.0341 0.0340 0.0000 5197.89674377441 5197.76039123535 0.1363525390625 0 0 0 0.0000 0.0000 0.0000 0.0000 190882.666564941 190882.666412354 0.000152587890625 0 0 0 0.0000 0.0000 0.0000 0.0000 76346.8032531738 76346.8021697998 0.0010833740234375 0 0 0 0.0000 0.0000 0.0000 0.0000 0x00400000 1.13623046875 0x10000000 0.12579345703125 0x7fffc000 0.25 0x00400140 0x7fff8000 0 0.001373291015625 360k 0.001373291015625 916231.319244385 0.0000 
