#set_size_in_keys sim_num_insn sim_num_refs sim_elapsed_time sim_inst_rate sim_num_branches sim_IPB bpred_2lev.lookups bpred_2lev.updates bpred_2lev.addr_hits bpred_2lev.dir_hits bpred_2lev.misses bpred_2lev.jr_hits bpred_2lev.jr_seen bpred_2lev.jr_non_ras_hits.PP bpred_2lev.jr_non_ras_seen.PP bpred_2lev.bpred_addr_rate bpred_2lev.bpred_dir_rate bpred_2lev.bpred_jr_rate bpred_2lev.bpred_jr_non_ras_rate.PP bpred_2lev.retstack_pushes bpred_2lev.retstack_pops bpred_2lev.used_ras.PP bpred_2lev.ras_hits.PP bpred_2lev.ras_rate.PP
4096 14915.7788085938 6171.24951171875 0.003662109375 4073002.0000 2571.88403320312 5.7996 2571.88403320312 2571.88403320312 2093.41528320312 2093.4443359375 478.439697265625 2.088134765625 2.08837890625 0 0 0.8140 0.8140 0.9999 <error: 2.0888671875 2.08837890625 2.08837890625 2.088134765625 0.9999 
8192 29809.6047363281 12345.5576171875 0.0074462890625 4003283.3115 5131.94482421875 5.8086 5131.94482421875 5131.94482421875 4028.60656738281 4028.62133789062 1103.32348632812 2.0440673828125 2.044189453125 0 0 0.7850 0.7850 0.9999 <error: 2.04443359375 2.044189453125 2.044189453125 2.0440673828125 0.9999 
16384 59324.6669311523 24512.8631591797 0.0147705078125 4016427.0372 10251.9408569336 5.7867 10251.9408569336 10251.9408569336 7860.79211425781 7860.79913330078 2391.14172363281 2.02203369140625 2.0220947265625 0 0 0.7668 0.7668 1.0000 <error: 2.022216796875 2.0220947265625 2.0220947265625 2.02203369140625 1.0000 
32768 118714.493652344 49087.4934692383 0.029541015625 4018632.7769 20491.8626098633 5.7933 20491.8626098633 20491.8626098633 15587.1977233887 15587.2015075684 4904.66110229492 2.01101684570312 2.01104736328125 0 0 0.7607 0.7607 1.0000 <error: 2.0111083984375 2.01104736328125 2.01104736328125 2.01101684570312 1.0000 
65536 237341.665313721 98135.1025085449 0.0547943115234375 4331501.9153 40971.740447998 5.7928 40971.740447998 40971.740447998 31227.3714752197 31227.3733215332 9744.36712646484 2.00550842285156 2.00552368164062 0 0 0.7622 0.7622 1.0000 <error: 2.00555419921875 2.00552368164062 2.00552368164062 2.00550842285156 1.0000 
