#set_size_in_keys sim_num_insn sim_num_refs sim_elapsed_time sim_inst_rate il1.accesses il1.hits il1.misses il1.replacements il1.writebacks il1.invalidations il1.miss_rate il1.repl_rate il1.wb_rate il1.inv_rate dl1.accesses dl1.hits dl1.misses dl1.replacements dl1.writebacks dl1.invalidations dl1.miss_rate dl1.repl_rate dl1.wb_rate dl1.inv_rate dl2.accesses dl2.hits dl2.misses dl2.replacements dl2.writebacks dl2.invalidations dl2.miss_rate dl2.repl_rate dl2.wb_rate dl2.inv_rate itlb.accesses itlb.hits itlb.misses itlb.replacements itlb.writebacks itlb.invalidations itlb.miss_rate itlb.repl_rate itlb.wb_rate itlb.inv_rate dtlb.accesses dtlb.hits dtlb.misses dtlb.replacements dtlb.writebacks dtlb.invalidations dtlb.miss_rate dtlb.repl_rate dtlb.wb_rate dtlb.inv_rate ld_text_base ld_text_size ld_data_base ld_data_size ld_stack_base ld_stack_size ld_prog_entry ld_environ_base ld_target_big_endian mem.page_count mem.page_mem mem.ptab_misses mem.ptab_accesses mem.ptab_miss_rate
4096 14915.7788085938 6171.24951171875 0.01220703125 1221900.6000 14915.7788085938 14915.6994628906 0.079345703125 0.016845703125 0 0 0.0000 0.0000 0.0000 0.0000 6171.2666015625 5978.53149414062 192.735107421875 192.672607421875 184.7509765625 0 0.0312 0.0312 0.0299 0.0000 377.5654296875 377.259765625 0.3056640625 0 0 0 0.0008 0.0000 0.0000 0.0000 14915.7788085938 14915.7770996094 0.001708984375 0 0 0 0.0000 0.0000 0.0000 0.0000 6171.2666015625 6171.26416015625 0.00244140625 0 0 0 0.0000 0.0000 0.0000 0.0000 0x00400000 6.3984375 0x10000000 1 0x7fffc000 4 0x00400140 0x7fff8000 0 0.004150390625 68k 0.004150390625 72045.3120117188 0.0000 
8192 29809.6047363281 12345.5576171875 0.0201416015625 1480001.7091 29809.6047363281 29809.5649414062 0.039794921875 0.008544921875 0 0 0.0000 0.0000 0.0000 0.0000 12345.5661621094 11864.7611083984 480.805053710938 480.773803710938 445.924682617188 0 0.0389 0.0389 0.0361 0.0000 926.76953125 926.554077148438 0.2154541015625 0 0 0 0.0002 0.0000 0.0000 0.0000 29809.6047363281 29809.6038818359 0.0008544921875 0 0 0 0.0000 0.0000 0.0000 0.0000 12345.5661621094 12345.564453125 0.001708984375 0 0 0 0.0000 0.0000 0.0000 0.0000 0x00400000 3.203125 0x10000000 0.5 0x7fffc000 2 0x00400140 0x7fff8000 0 0.0025634765625 84k 0.0025634765625 143949.406494141 0.0000 
16384 59324.6669311523 24512.8631591797 0.03753662109375 1580447.7122 59324.6669311523 59324.6470336914 0.0198974609375 0.0042724609375 0 0 0.0000 0.0000 0.0000 0.0000 24512.8674316406 23504.0274047852 1008.84002685547 1008.82440185547 914.659301757812 0 0.0412 0.0412 0.0373 0.0000 1923.51922607422 1923.34906005859 0.170166015625 0 0 0 0.0001 0.0000 0.0000 0.0000 59324.6669311523 59324.6665039062 0.00042724609375 0 0 0 0.0000 0.0000 0.0000 0.0000 24512.8674316406 24512.8660888672 0.0013427734375 0 0 0 0.0000 0.0000 0.0000 0.0000 0x00400000 1.6025390625 0x10000000 0.25 0x7fffc000 1 0x00400140 0x7fff8000 0 0.00177001953125 116k 0.00177001953125 286334.33605957 0.0000 
32768 118714.493652344 49087.4934692383 0.0728759765625 1628993.5209 118714.493652344 118714.483673096 0.009979248046875 0.002166748046875 0 0 0.0000 0.0000 0.0000 0.0000 49087.4956054688 47046.638092041 2040.85751342773 2040.84970092773 1838.47061157227 0 0.0416 0.0416 0.0375 0.0000 3879.33810424805 3879.19049072266 0.147613525390625 0 0 0 0.0000 0.0000 0.0000 0.0000 118714.493652344 118714.493438721 0.000213623046875 0 0 0 0.0000 0.0000 0.0000 0.0000 49087.4956054688 49087.4944458008 0.00115966796875 0 0 0 0.0000 0.0000 0.0000 0.0000 0x00400000 0.80224609375 0x10000000 0.125 0x7fffc000 0.5 0x00400140 0x7fff8000 0 0.001373291015625 180k 0.001373291015625 573037.938415527 0.0000 
65536 237341.665313721 98135.1025085449 0.142501831054688 1665534.1448 237341.665313721 237341.660324097 0.0049896240234375 0.0010833740234375 0 0 0.0000 0.0000 0.0000 0.0000 98135.1035766602 94042.2373199463 4092.86625671387 4092.86235046387 3673.14892578125 0 0.0417 0.0417 0.0374 0.0000 7766.02017211914 7765.88386535645 0.136306762695312 0 0 0 0.0000 0.0000 0.0000 0.0000 237341.665313721 237341.665206909 0.0001068115234375 0 0 0 0.0000 0.0000 0.0000 0.0000 98135.1035766602 98135.1025085449 0.001068115234375 0 0 0 0.0000 0.0000 0.0000 0.0000 0x00400000 0.401123046875 0x10000000 0.0625 0x7fffc000 0.25 0x00400140 0x7fff8000 0 0.0011749267578125 308k 0.0011749267578125 1145639.35470581 0.0000 
