#set_size_in_keys sim_num_insn sim_num_refs sim_elapsed_time sim_inst_rate il1.accesses il1.hits il1.misses il1.replacements il1.writebacks il1.invalidations il1.miss_rate il1.repl_rate il1.wb_rate il1.inv_rate dl1.accesses dl1.hits dl1.misses dl1.replacements dl1.writebacks dl1.invalidations dl1.miss_rate dl1.repl_rate dl1.wb_rate dl1.inv_rate dl2.accesses dl2.hits dl2.misses dl2.replacements dl2.writebacks dl2.invalidations dl2.miss_rate dl2.repl_rate dl2.wb_rate dl2.inv_rate itlb.accesses itlb.hits itlb.misses itlb.replacements itlb.writebacks itlb.invalidations itlb.miss_rate itlb.repl_rate itlb.wb_rate itlb.inv_rate dtlb.accesses dtlb.hits dtlb.misses dtlb.replacements dtlb.writebacks dtlb.invalidations dtlb.miss_rate dtlb.repl_rate dtlb.wb_rate dtlb.inv_rate ld_text_base ld_text_size ld_data_base ld_data_size ld_stack_base ld_stack_size ld_prog_entry ld_environ_base ld_target_big_endian mem.page_count mem.page_mem mem.ptab_misses mem.ptab_accesses mem.ptab_miss_rate
4096 212.63671875 53.244873046875 0.0048828125 43548.0000 212.63671875 212.4501953125 0.1865234375 0.0615234375 0 0 0.0009 0.0003 0.0000 0.0000 57.264404296875 55.41845703125 1.845947265625 1.720947265625 1.443359375 0 0.0322 0.0301 0.0252 0.0000 3.475830078125 2.589111328125 0.88671875 0 0 0 0.2551 0.0000 0.0000 0.0000 212.63671875 212.634033203125 0.002685546875 0 0 0 0.0000 0.0000 0.0000 0.0000 57.264404296875 57.260498046875 0.00390625 0 0 0 0.0001 0.0000 0.0000 0.0000 0x00400000 18.71875 0x10000000 2.0126953125 0x7fffc000 4 0x00400140 0x7fff8000 0 0.008544921875 140k 0.008544921875 1081.05419921875 0.0000 
8192 228.048461914062 56.7166748046875 0.003662109375 62272.4333 228.048461914062 227.95654296875 0.0919189453125 0.0294189453125 0 0 0.0004 0.0001 0.0000 0.0000 60.7264404296875 58.468505859375 2.2579345703125 2.1954345703125 1.89892578125 0 0.0372 0.0362 0.0313 0.0000 4.248779296875 3.5576171875 0.691162109375 0 0 0 0.1627 0.0000 0.0000 0.0000 228.048461914062 228.047119140625 0.0013427734375 0 0 0 0.0000 0.0000 0.0000 0.0000 60.7264404296875 60.7235107421875 0.0029296875 0 0 0 0.0000 0.0000 0.0000 0.0000 0x00400000 9.36328125 0x10000000 1.00634765625 0x7fffc000 2 0x00400140 0x7fff8000 0 0.0052490234375 172k 0.0052490234375 1091.65942382812 0.0000 
16384 244.335693359375 60.5037231445312 0.003173828125 76984.5385 244.335693359375 244.289733886719 0.04595947265625 0.01470947265625 0 0 0.0002 0.0001 0.0000 0.0000 64.5086059570312 61.745361328125 2.76324462890625 2.73199462890625 2.41497802734375 0 0.0428 0.0424 0.0374 0.0000 5.22418212890625 4.62860107421875 0.5955810546875 0 0 0 0.1140 0.0000 0.0000 0.0000 244.335693359375 244.335021972656 0.00067138671875 0 0 0 0.0000 0.0000 0.0000 0.0000 64.5086059570312 64.5061645507812 0.00244140625 0 0 0 0.0000 0.0000 0.0000 0.0000 0x00400000 4.6826171875 0x10000000 0.503173828125 0x7fffc000 1 0x00400140 0x7fff8000 0 0.00360107421875 236k 0.00360107421875 1135.37219238281 0.0000 
32768 260.3662109375 64.3255615234375 0.00286865234375 90762.5532 260.3662109375 260.343170166016 0.023040771484375 0.007415771484375 0 0 0.0001 0.0000 0.0000 0.0000 68.3280029296875 64.9908142089844 3.33718872070312 3.32156372070312 2.99411010742188 0 0.0488 0.0486 0.0438 0.0000 6.35433959960938 5.80648803710938 0.5478515625 0 0 0 0.0862 0.0000 0.0000 0.0000 260.3662109375 260.365875244141 0.000335693359375 0 0 0 0.0000 0.0000 0.0000 0.0000 68.3280029296875 68.3258056640625 0.002197265625 0 0 0 0.0000 0.0000 0.0000 0.0000 0x00400000 2.341796875 0x10000000 0.2515869140625 0x7fffc000 0.5 0x00400140 0x7fff8000 0 0.002777099609375 364k 0.002777099609375 1192.6298828125 0.0000 
65536 276.989852905273 68.3011932373047 0.0025787353515625 107413.0592 276.989852905273 276.978332519531 0.0115203857421875 0.0037078857421875 0 0 0.0000 0.0000 0.0000 0.0000 72.3024139404297 68.3951721191406 3.90724182128906 3.89942932128906 3.56742858886719 0 0.0540 0.0539 0.0493 0.0000 7.48619079589844 6.96226501464844 0.52392578125 0 0 0 0.0700 0.0000 0.0000 0.0000 276.989852905273 276.989685058594 0.0001678466796875 0 0 0 0.0000 0.0000 0.0000 0.0000 72.3024139404297 72.3001708984375 0.0022430419921875 0.0002899169921875 0.000244140625 0 0.0000 0.0000 0.0000 0.0000 0x00400000 1.1708984375 0x10000000 0.12579345703125 0x7fffc000 0.25 0x00400140 0x7fff8000 0 0.0023651123046875 620k 0.0023651123046875 1259.81875610352 0.0000 
131072 293.308769226074 72.2403182983398 0.00217437744140625 134893.2175 293.308769226074 293.303016662598 0.0057525634765625 0.0018463134765625 0 0 0.0000 0.0000 0.0000 0.0000 76.2409286499023 71.7478256225586 4.49310302734375 4.48919677734375 4.15331268310547 0 0.0589 0.0589 0.0545 0.0000 8.65216827392578 8.14021301269531 0.511955261230469 0 0 0 0.0592 0.0000 0.0000 0.0000 293.308769226074 293.308685302734 8.392333984375e-05 0 0 0 0.0000 0.0000 0.0000 0.0000 76.2409286499023 76.2347640991211 0.00616455078125 0.00518798828125 0.00421905517578125 0 0.0001 0.0001 0.0001 0.0000 0x00400000 0.58544921875 0x10000000 0.062896728515625 0x7fffc000 0.125 0x00400140 0x7fff8000 0 0.00215911865234375 1132k 0.00215911865234375 1329.34419250488 0.0000 
262144 310.002460479736 76.2624626159668 0.00147247314453125 210531.8264 310.002460479736 309.999584197998 0.00287628173828125 0.00092315673828125 0 0 0.0000 0.0000 0.0000 0.0000 80.262767791748 75.1879920959473 5.07477569580078 5.07282257080078 4.73381805419922 0 0.0632 0.0632 0.0590 0.0000 9.81147003173828 9.13556289672852 0.675907135009766 0.175907135009766 0.170619964599609 0 0.0689 0.0179 0.0174 0.0000 310.002460479736 310.002418518066 4.1961669921875e-05 0 0 0 0.0000 0.0000 0.0000 0.0000 80.262767791748 80.0441246032715 0.218643188476562 0.218154907226562 0.206466674804688 0 0.0027 0.0027 0.0026 0.0000 0x00400000 0.292724609375 0x10000000 0.0314483642578125 0x7fffc000 0.0625 0x00400140 0x7fff8000 0 0.00205612182617188 2156k 0.00205612182617188 1402.34900665283 0.0000 
524288 326.310752868652 80.2124214172363 0.000797271728515625 409284.2392 326.310752868652 326.309314727783 0.00143814086914062 0.000461578369140625 0 0 0.0000 0.0000 0.0000 0.0000 84.212574005127 78.5628795623779 5.64969444274902 5.64871788024902 5.30849075317383 0 0.0671 0.0671 0.0630 0.0000 10.959623336792 9.71264457702637 1.24697875976562 0.996978759765625 0.742433547973633 0 0.1138 0.0910 0.0677 0.0000 326.310752868652 326.310731887817 2.09808349609375e-05 0 0 0 0.0000 0.0000 0.0000 0.0000 84.212574005127 83.5457248687744 0.666849136352539 0.666604995727539 0.630664825439453 0 0.0079 0.0079 0.0075 0.0000 0x00400000 0.1463623046875 0x10000000 0.0157241821289062 0x7fffc000 0.03125 0x00400140 0x7fff8000 0 0.00200462341308594 4204k 0.00200462341308594 1474.57497406006 0.0000 
1048576 343.076787948608 84.2609634399414 0.00046539306640625 737176.4057 343.076787948608 343.075950622559 0.000837326049804688 0.000349044799804688 0 0 0.0000 0.0000 0.0000 0.0000 88.2610397338867 82.0411357879639 6.21990394592285 6.21941566467285 5.87814712524414 0 0.0705 0.0705 0.0666 0.0000 12.0988883972168 10.4644460678101 1.63444232940674 1.50944232940674 1.23584747314453 0 0.1351 0.1248 0.1021 0.0000 343.076787948608 343.076777458191 1.04904174804688e-05 0 0 0 0.0000 0.0000 0.0000 0.0000 88.2610397338867 87.0278129577637 1.23322677612305 1.23310470581055 1.17605495452881 0 0.0140 0.0140 0.0133 0.0000 0x00400000 0.07318115234375 0x10000000 0.00786209106445312 0x7fffc000 0.015625 0x00400140 0x7fff8000 0 0.00198459625244141 8324k 0.00875949859619141 1549.2826385498 0.0000 
2097152 359.395022392273 88.2121348381042 0.000302314758300781 1188810.7098 359.395022392273 359.394603729248 0.000418663024902344 0.000174522399902344 0 0 0.0000 0.0000 0.0000 0.0000 92.2121729850769 85.428653717041 6.78351926803589 6.78327512741089 6.44242811203003 0 0.0736 0.0736 0.0699 0.0000 13.2263660430908 11.0795774459839 2.14678859710693 2.08428859710693 1.78789615631104 0 0.1623 0.1576 0.1352 0.0000 359.395022392273 359.395017147064 5.24520874023438e-06 0 0 0 0.0000 0.0000 0.0000 0.0000 92.2121729850769 90.3751964569092 1.83697652816772 1.83691549301147 1.76576232910156 0 0.0199 0.0199 0.0191 0.0000 0x00400000 0.036590576171875 0x10000000 0.00393104553222656 0x7fffc000 0.0078125 0x00400140 0x7fff8000 0 0.00197172164916992 16540k 0.0111551284790039 1622.23113918304 0.0000 
4194304 376.156674146652 92.2565724849701 0.000226020812988281 1664256.7964 376.156674146652 376.15646481514 0.000209331512451172 8.72611999511719e-05 0 0 0.0000 0.0000 0.0000 0.0000 96.2565915584564 88.9148349761963 7.34175658226013 7.34163451194763 7.00051975250244 0 0.0763 0.0763 0.0727 0.0000 14.342485666275 11.6272077560425 2.71527791023254 2.68402791023254 2.3698742389679 0 0.1893 0.1871 0.1652 0.0000 376.156674146652 376.156671524048 2.62260437011719e-06 0 0 0 0.0000 0.0000 0.0000 0.0000 96.2565915584564 93.8014116287231 2.45517992973328 2.45514941215515 2.37500476837158 0 0.0255 0.0255 0.0247 0.0000 0x00400000 0.0182952880859375 0x10000000 0.00196552276611328 0x7fffc000 0.00390625 0x00400140 0x7fff8000 0 0.00196528434753418 32972k 0.0155172348022461 1697.25323152542 0.0000 
