#set_size_in_keys sim_num_insn sim_num_refs sim_elapsed_time sim_inst_rate sim_num_branches sim_IPB bpred_2lev.lookups bpred_2lev.updates bpred_2lev.addr_hits bpred_2lev.dir_hits bpred_2lev.misses bpred_2lev.jr_hits bpred_2lev.jr_seen bpred_2lev.jr_non_ras_hits.PP bpred_2lev.jr_non_ras_seen.PP bpred_2lev.bpred_addr_rate bpred_2lev.bpred_dir_rate bpred_2lev.bpred_jr_rate bpred_2lev.bpred_jr_non_ras_rate.PP bpred_2lev.retstack_pushes bpred_2lev.retstack_pops bpred_2lev.used_ras.PP bpred_2lev.ras_hits.PP bpred_2lev.ras_rate.PP
4096 11959.0068359375 4783.27416992188 0.00146484375 8164015.3333 1708.15356445312 7.0011 1708.15356445312 1708.15356445312 1358.34790039062 1358.37329101562 349.7802734375 0.013427734375 0.013671875 0 0 0.7952 0.7952 0.9821 <error: 0.01416015625 0.013671875 0.013671875 0.013427734375 0.9821 
8192 23850.4666748047 9539.37902832031 0.0029296875 8140959.2917 3407.12829589844 7.0002 3407.12829589844 3407.12829589844 2675.93505859375 2675.94750976562 731.180786132812 0.0067138671875 0.0068359375 0 0 0.7854 0.7854 0.9821 <error: 0.007080078125 0.0068359375 0.0068359375 0.0067138671875 0.9821 
16384 48237.6561279297 19295.0814819336 0.0057373046875 8407720.8298 6890.5361328125 7.0006 6890.5361328125 6890.5361328125 5408.68609619141 5408.69189453125 1481.84423828125 0.00335693359375 0.00341796875 0 0 0.7849 0.7849 0.9821 <error: 0.0035400390625 0.00341796875 0.00341796875 0.00335693359375 0.9821 
32768 95417.5985717773 38158.5664978027 0.01287841796875 7409108.6967 13635.0737609863 6.9980 13635.0737609863 13635.0737609863 10712.1630249023 10712.1663513184 2922.90740966797 0.001678466796875 0.001708984375 0 0 0.7856 0.7856 0.9821 <error: 0.00177001953125 0.001708984375 0.001708984375 0.001678466796875 0.9821 
65536 190882.666564941 76342.8020324707 0.0206146240234375 9259575.4523 27273.8910217285 6.9987 27273.8910217285 27273.8910217285 21525.19871521 21525.200378418 5748.69064331055 0.0008392333984375 0.0008544921875 0 0 0.7892 0.7892 0.9821 <error: 0.000885009765625 0.0008544921875 0.0008544921875 0.0008392333984375 0.9821 
