#set_size_in_keys sim_num_insn sim_num_refs sim_elapsed_time sim_inst_rate sim_num_branches sim_IPB bpred_2lev.lookups bpred_2lev.updates bpred_2lev.addr_hits bpred_2lev.dir_hits bpred_2lev.misses bpred_2lev.jr_hits bpred_2lev.jr_seen bpred_2lev.jr_non_ras_hits.PP bpred_2lev.jr_non_ras_seen.PP bpred_2lev.bpred_addr_rate bpred_2lev.bpred_dir_rate bpred_2lev.bpred_jr_rate bpred_2lev.bpred_jr_non_ras_rate.PP bpred_2lev.retstack_pushes bpred_2lev.retstack_pops bpred_2lev.used_ras.PP bpred_2lev.ras_hits.PP bpred_2lev.ras_rate.PP
4096 14857.1389160156 6143.09301757812 0.001953125 7606855.1250 2561.37426757812 5.8005 2561.37426757812 2561.37426757812 2086.798828125 2086.82470703125 474.549560546875 0.013427734375 0.013671875 0 0 0.8147 0.8147 0.9821 <error: 0.01416015625 0.013671875 0.013671875 0.013427734375 0.9821 
8192 29687.8634033203 12276.0723876953 0.0037841796875 7845257.3226 5120.94982910156 5.7973 5120.94982910156 5120.94982910156 4026.61767578125 4026.63024902344 1094.31958007812 0.0067138671875 0.0068359375 0 0 0.7863 0.7863 0.9821 <error: 0.007080078125 0.0068359375 0.0068359375 0.0067138671875 0.9821 
16384 59515.6762695312 24651.091003418 0.007568359375 7863748.7097 10241.4739379883 5.8112 10241.4739379883 10241.4739379883 7860.171875 7860.17846679688 2381.29547119141 0.00335693359375 0.00341796875 0 0 0.7675 0.7675 0.9821 <error: 0.0035400390625 0.00341796875 0.00341796875 0.00335693359375 0.9821 
32768 118726.694641113 49106.7762756348 0.015289306640625 7765341.9760 20481.2118530273 5.7969 20481.2118530273 20481.2118530273 15543.7448730469 15543.7482299805 4937.46362304688 0.001678466796875 0.001708984375 0 0 0.7589 0.7589 0.9821 <error: 0.00177001953125 0.001708984375 0.001708984375 0.001678466796875 0.9821 
65536 237481.255203247 98238.054397583 0.0272369384765625 8719087.6980 40961.9345855713 5.7976 40961.9345855713 40961.9345855713 31148.4639587402 31148.4656219482 9813.46896362305 0.0008392333984375 0.0008544921875 0 0 0.7604 0.7604 0.9821 <error: 0.000885009765625 0.0008544921875 0.0008544921875 0.0008392333984375 0.9821 
