#set_size_in_keys sim_num_insn sim_num_refs sim_elapsed_time sim_inst_rate sim_num_branches sim_IPB bpred_bimod.lookups bpred_bimod.updates bpred_bimod.addr_hits bpred_bimod.dir_hits bpred_bimod.misses bpred_bimod.jr_hits bpred_bimod.jr_seen bpred_bimod.jr_non_ras_hits.PP bpred_bimod.jr_non_ras_seen.PP bpred_bimod.bpred_addr_rate bpred_bimod.bpred_dir_rate bpred_bimod.bpred_jr_rate bpred_bimod.bpred_jr_non_ras_rate.PP bpred_bimod.retstack_pushes bpred_bimod.retstack_pops bpred_bimod.used_ras.PP bpred_bimod.ras_hits.PP bpred_bimod.ras_rate.PP
4096 7262.34204101562 3110.5576171875 0.0009765625 7436638.2500 1040.0244140625 6.9829 1040.0244140625 1040.0244140625 1038.90234375 1038.92846679688 1.095947265625 2.088134765625 2.08837890625 0 0 0.9989 0.9989 0.9999 <error: 2.0888671875 2.08837890625 2.08837890625 2.088134765625 0.9999 
8192 14535.9659423828 6227.71643066406 0.001708984375 8505616.6429 2079.07409667969 6.9916 2079.07409667969 2079.07409667969 2077.98034667969 2077.99328613281 1.080810546875 2.0440673828125 2.044189453125 0 0 0.9995 0.9995 0.9999 <error: 2.04443359375 2.044189453125 2.044189453125 2.0440673828125 0.9999 
16384 28451.9755249023 12191.6665649414 0.0032958984375 8632540.1296 4067.05584716797 6.9957 4067.05584716797 4067.05584716797 4065.97668457031 4065.98327636719 1.07257080078125 2.02203369140625 2.0220947265625 0 0 0.9997 0.9997 1.0000 <error: 2.022216796875 2.0220947265625 2.0220947265625 2.02203369140625 1.0000 
32768 57120.8181152344 24478.2865600586 0.006561279296875 8705744.0372 8162.59497070312 6.9979 8162.59497070312 8162.59497070312 8161.52310180664 8161.52639770508 1.06857299804688 2.01101684570312 2.01104736328125 0 0 0.9999 0.9999 1.0000 <error: 2.0111083984375 2.01104736328125 2.01104736328125 2.01101684570312 1.0000 
65536 114100.733566284 48898.2368469238 0.0136260986328125 8373690.5655 16302.5780029297 6.9989 16302.5780029297 16302.5780029297 16301.5097961426 16301.5114440918 1.06655883789062 2.00550842285156 2.00552368164062 0 0 0.9999 0.9999 1.0000 <error: 2.00555419921875 2.00552368164062 2.00552368164062 2.00550842285156 1.0000 
