#set_size_in_keys sim_num_insn sim_num_refs sim_elapsed_time sim_inst_rate sim_num_branches sim_IPB bpred_2lev.lookups bpred_2lev.updates bpred_2lev.addr_hits bpred_2lev.dir_hits bpred_2lev.misses bpred_2lev.jr_hits bpred_2lev.jr_seen bpred_2lev.jr_non_ras_hits.PP bpred_2lev.jr_non_ras_seen.PP bpred_2lev.bpred_addr_rate bpred_2lev.bpred_dir_rate bpred_2lev.bpred_jr_rate bpred_2lev.bpred_jr_non_ras_rate.PP bpred_2lev.retstack_pushes bpred_2lev.retstack_pops bpred_2lev.used_ras.PP bpred_2lev.ras_hits.PP bpred_2lev.ras_rate.PP
4096 7262.34204101562 3110.5576171875 0.000732421875 9915517.6667 1040.0244140625 6.9829 1040.0244140625 1040.0244140625 1038.861328125 1038.8876953125 1.13671875 2.088134765625 2.08837890625 0 0 0.9989 0.9989 0.9999 <error: 2.0888671875 2.08837890625 2.08837890625 2.088134765625 0.9999 
8192 14535.9659423828 6227.71643066406 0.001708984375 8505616.6429 2079.07409667969 6.9916 2079.07409667969 2079.07409667969 2077.95764160156 2077.97094726562 1.1031494140625 2.0440673828125 2.044189453125 0 0 0.9995 0.9995 0.9999 <error: 2.04443359375 2.044189453125 2.044189453125 2.0440673828125 0.9999 
16384 28451.9755249023 12191.6665649414 0.00335693359375 8475584.8545 4067.05584716797 6.9957 4067.05584716797 4067.05584716797 4065.96295166016 4065.96942138672 1.08642578125 2.02203369140625 2.0220947265625 0 0 0.9997 0.9997 1.0000 <error: 2.022216796875 2.0220947265625 2.0220947265625 2.02203369140625 1.0000 
32768 57120.8181152344 24478.2865600586 0.0067138671875 8507886.2182 8162.59497070312 6.9979 8162.59497070312 8162.59497070312 8161.51425170898 8161.51745605469 1.0775146484375 2.01101684570312 2.01104736328125 0 0 0.9999 0.9999 1.0000 <error: 2.0111083984375 2.01104736328125 2.01104736328125 2.01101684570312 1.0000 
65536 114100.733566284 48898.2368469238 0.013702392578125 8327066.4532 16302.5780029297 6.9989 16302.5780029297 16302.5780029297 16301.5033569336 16301.5049591064 1.07304382324219 2.00550842285156 2.00552368164062 0 0 0.9999 0.9999 1.0000 <error: 2.00555419921875 2.00552368164062 2.00552368164062 2.00550842285156 1.0000 
