#set_size_in_keys sim_num_insn sim_num_refs sim_elapsed_time sim_inst_rate il1.accesses il1.hits il1.misses il1.replacements il1.writebacks il1.invalidations il1.miss_rate il1.repl_rate il1.wb_rate il1.inv_rate dl1.accesses dl1.hits dl1.misses dl1.replacements dl1.writebacks dl1.invalidations dl1.miss_rate dl1.repl_rate dl1.wb_rate dl1.inv_rate dl2.accesses dl2.hits dl2.misses dl2.replacements dl2.writebacks dl2.invalidations dl2.miss_rate dl2.repl_rate dl2.wb_rate dl2.inv_rate itlb.accesses itlb.hits itlb.misses itlb.replacements itlb.writebacks itlb.invalidations itlb.miss_rate itlb.repl_rate itlb.wb_rate itlb.inv_rate dtlb.accesses dtlb.hits dtlb.misses dtlb.replacements dtlb.writebacks dtlb.invalidations dtlb.miss_rate dtlb.repl_rate dtlb.wb_rate dtlb.inv_rate ld_text_base ld_text_size ld_data_base ld_data_size ld_stack_base ld_stack_size ld_prog_entry ld_environ_base ld_target_big_endian mem.page_count mem.page_mem mem.ptab_misses mem.ptab_accesses mem.ptab_miss_rate
4096 1.506103515625 0.8896484375 0.000244140625 6169.0000 1.506103515625 1.423095703125 0.0830078125 0.035888671875 0 0 0.0551 0.0238 0.0000 0.0000 4.9091796875 4.67626953125 0.23291015625 0.17041015625 0.167724609375 0 0.0474 0.0347 0.0342 0.0000 0.483642578125 0.187255859375 0.29638671875 0.01904296875 0.000244140625 0 0.6128 0.0394 0.0005 0.0000 1.506103515625 1.50341796875 0.002685546875 0 0 0 0.0018 0.0000 0.0000 0.0000 4.9091796875 4.906494140625 0.002685546875 0 0 0 0.0005 0.0000 0.0000 0.0000 0x00400000 17.8359375 0x10000000 2.0126953125 0x7fffc000 4 0x00400140 0x7fff8000 0 0.007080078125 116k 0.007080078125 126.52197265625 0.0001 
8192 0.7535400390625 0.44482421875 0.0001220703125 6173.0000 0.7535400390625 0.7119140625 0.0416259765625 0.01806640625 0 0 0.0552 0.0240 0.0000 0.0000 4.45458984375 4.275634765625 0.178955078125 0.147705078125 0.1463623046875 0 0.0402 0.0332 0.0329 0.0000 0.366943359375 0.156005859375 0.2109375 0.0096435546875 0.0001220703125 0 0.5749 0.0263 0.0003 0.0000 0.7535400390625 0.752197265625 0.0013427734375 0 0 0 0.0018 0.0000 0.0000 0.0000 4.45458984375 4.4527587890625 0.0018310546875 0 0 0 0.0004 0.0000 0.0000 0.0000 0x00400000 8.921875 0x10000000 1.00634765625 0x7fffc000 2 0x00400140 0x7fff8000 0 0.0040283203125 132k 0.0040283203125 67.286376953125 0.0001 
16384 0.37689208984375 0.222412109375 6.103515625e-05 6175.0000 0.37689208984375 0.3553466796875 0.02154541015625 0.0093994140625 0 0 0.0572 0.0249 0.0000 0.0000 4.227294921875 4.0753173828125 0.1519775390625 0.1363525390625 0.13568115234375 0 0.0360 0.0323 0.0321 0.0000 0.3092041015625 0.140625 0.1685791015625 0.00482177734375 6.103515625e-05 0 0.5452 0.0156 0.0002 0.0000 0.37689208984375 0.376220703125 0.00067138671875 0 0 0 0.0018 0.0000 0.0000 0.0000 4.227294921875 4.22589111328125 0.00140380859375 0 0 0 0.0003 0.0000 0.0000 0.0000 0x00400000 4.4619140625 0x10000000 0.503173828125 0x7fffc000 1 0x00400140 0x7fff8000 0 0.00250244140625 164k 0.00250244140625 37.6495361328125 0.0001 
32768 0.1884765625 0.1112060546875 3.0517578125e-05 6176.0000 0.1884765625 0.17803955078125 0.01043701171875 0.004547119140625 0 0 0.0554 0.0241 0.0000 0.0000 4.1136474609375 3.97515869140625 0.13848876953125 0.13067626953125 0.130340576171875 0 0.0337 0.0318 0.0317 0.0000 0.279266357421875 0.132720947265625 0.14654541015625 0.00244140625 3.0517578125e-05 0 0.5248 0.0087 0.0001 0.0000 0.1884765625 0.188140869140625 0.000335693359375 0 0 0 0.0018 0.0000 0.0000 0.0000 4.1136474609375 4.11245727539062 0.001190185546875 0 0 0 0.0003 0.0000 0.0000 0.0000 0x00400000 2.2314453125 0x10000000 0.2515869140625 0x7fffc000 0.5 0x00400140 0x7fff8000 0 0.001739501953125 228k 0.001739501953125 22.8278198242188 0.0001 
65536 0.09423828125 0.05560302734375 1.52587890625e-05 6176.0000 0.09423828125 0.089019775390625 0.005218505859375 0.0022735595703125 0 0 0.0554 0.0241 0.0000 0.0000 4.05682373046875 3.92507934570312 0.131744384765625 0.127838134765625 0.127670288085938 0 0.0325 0.0315 0.0315 0.0000 0.264633178710938 0.128860473632812 0.135772705078125 0.001220703125 1.52587890625e-05 0 0.5131 0.0046 0.0001 0.0000 0.09423828125 0.0940704345703125 0.0001678466796875 0 0 0 0.0018 0.0000 0.0000 0.0000 4.05682373046875 4.05574035644531 0.0010833740234375 0 0 0 0.0003 0.0000 0.0000 0.0000 0x00400000 1.11572265625 0x10000000 0.12579345703125 0x7fffc000 0.25 0x00400140 0x7fff8000 0 0.0013580322265625 356k 0.0013580322265625 15.4139099121094 0.0001 
131072 0.0471267700195312 0.027801513671875 7.62939453125e-06 6177.0000 0.0471267700195312 0.0445175170898438 0.0026092529296875 0.00113677978515625 0 0 0.0554 0.0241 0.0000 0.0000 4.02841186523438 3.90003967285156 0.128372192382812 0.126419067382812 0.126335144042969 0 0.0319 0.0314 0.0314 0.0000 0.257316589355469 0.126930236816406 0.130386352539062 0.0006103515625 7.62939453125e-06 0 0.5067 0.0024 0.0000 0.0000 0.0471267700195312 0.0470428466796875 8.392333984375e-05 0 0 0 0.0018 0.0000 0.0000 0.0000 4.02841186523438 4.02735137939453 0.00106048583984375 8.392333984375e-05 6.866455078125e-05 0 0.0003 0.0000 0.0000 0.0000 0x00400000 0.557861328125 0x10000000 0.062896728515625 0x7fffc000 0.125 0x00400140 0x7fff8000 0 0.00116729736328125 612k 0.00116729736328125 11.7069854736328 0.0001 
262144 0.0235633850097656 0.0139007568359375 3.814697265625e-06 6177.0000 0.0235633850097656 0.0222587585449219 0.00130462646484375 0.000568389892578125 0 0 0.0554 0.0241 0.0000 0.0000 4.01420593261719 3.88751983642578 0.126686096191406 0.125709533691406 0.125667572021484 0 0.0316 0.0313 0.0313 0.0000 0.253658294677734 0.125965118408203 0.127693176269531 0.00030517578125 3.814697265625e-06 0 0.5034 0.0012 0.0000 0.0000 0.0235633850097656 0.0235214233398438 4.1961669921875e-05 0 0 0 0.0018 0.0000 0.0000 0.0000 4.01420593261719 4.01318740844727 0.00101852416992188 0.000530242919921875 0.000522613525390625 0 0.0003 0.0001 0.0001 0.0000 0x00400000 0.2789306640625 0x10000000 0.0314483642578125 0x7fffc000 0.0625 0x00400140 0x7fff8000 0 0.00107192993164062 1124k 0.00107192993164062 9.85349273681641 0.0001 
524288 0.0117816925048828 0.00695037841796875 1.9073486328125e-06 6177.0000 0.0117816925048828 0.0111293792724609 0.000652313232421875 0.000284194946289062 0 0 0.0554 0.0241 0.0000 0.0000 4.00710296630859 3.88125991821289 0.125843048095703 0.125354766845703 0.125333786010742 0 0.0314 0.0313 0.0313 0.0000 0.251829147338867 0.125463485717773 0.126365661621094 0.00136566162109375 0.00110435485839844 0 0.5018 0.0054 0.0044 0.0000 0.0117816925048828 0.0117607116699219 2.09808349609375e-05 0 0 0 0.0018 0.0000 0.0000 0.0000 4.00710296630859 4.00610542297363 0.000997543334960938 0.000753402709960938 0.000749588012695312 0 0.0002 0.0002 0.0002 0.0000 0x00400000 0.13946533203125 0x10000000 0.0157241821289062 0x7fffc000 0.03125 0x00400140 0x7fff8000 0 0.00102424621582031 2148k 0.00102424621582031 8.9267463684082 0.0001 
1048576 0.00589084625244141 0.00347518920898438 1.9073486328125e-06 3088.5000 0.00589084625244141 0.00556468963623047 0.000326156616210938 0.000142097473144531 0 0 0.0554 0.0241 0.0000 0.0000 4.0035514831543 3.87812995910645 0.125421524047852 0.125177383422852 0.125166893005371 0 0.0313 0.0313 0.0313 0.0000 0.250914573669434 0.125231742858887 0.125682830810547 0.0631828308105469 0.0630521774291992 0 0.5009 0.2518 0.2513 0.0000 0.00589084625244141 0.00588035583496094 1.04904174804688e-05 0 0 0 0.0018 0.0000 0.0000 0.0000 4.0035514831543 4.00256443023682 0.000987052917480469 0.000864982604980469 0.000863075256347656 0 0.0002 0.0002 0.0002 0.0000 0x00400000 0.069732666015625 0x10000000 0.00786209106445312 0x7fffc000 0.015625 0x00400140 0x7fff8000 0 0.00100040435791016 4196k 0.00100040435791016 8.4633731842041 0.0001 
2097152 0.0029454231262207 0.00173759460449219 1.9073486328125e-06 1544.2500 0.0029454231262207 0.00278234481811523 0.000163078308105469 7.10487365722656e-05 0 0 0.0554 0.0241 0.0000 0.0000 4.00177574157715 3.87656497955322 0.125210762023926 0.125088691711426 0.125083446502686 0 0.0313 0.0313 0.0313 0.0000 0.250457286834717 0.125115871429443 0.125341415405273 0.0940914154052734 0.0940260887145996 0 0.5005 0.3757 0.3754 0.0000 0.0029454231262207 0.00294017791748047 5.24520874023438e-06 0 0 0 0.0018 0.0000 0.0000 0.0000 4.00177574157715 4.00079393386841 0.000981807708740234 0.000920772552490234 0.000919818878173828 0 0.0002 0.0002 0.0002 0.0000 0x00400000 0.0348663330078125 0x10000000 0.00393104553222656 0x7fffc000 0.0078125 0x00400140 0x7fff8000 0 0.000988483428955078 8292k 0.000988483428955078 8.23168659210205 0.0001 
4194304 0.00147271156311035 0.000868797302246094 1.9073486328125e-06 772.1250 0.00147271156311035 0.00139117240905762 8.15391540527344e-05 3.55243682861328e-05 0 0 0.0554 0.0241 0.0000 0.0000 4.00088787078857 3.87578248977661 0.125105381011963 0.125044345855713 0.125041723251343 0 0.0313 0.0313 0.0313 0.0000 0.250228643417358 0.125057935714722 0.125170707702637 0.109545707702637 0.1095130443573 0 0.5002 0.4378 0.4377 0.0000 0.00147271156311035 0.00147008895874023 2.62260437011719e-06 0 0 0 0.0018 0.0000 0.0000 0.0000 4.00088787078857 3.9999086856842 0.000979185104370117 0.000948667526245117 0.000948190689086914 0 0.0002 0.0002 0.0002 0.0000 0x00400000 0.0174331665039062 0x10000000 0.00196552276611328 0x7fffc000 0.00390625 0x00400140 0x7fff8000 0 0.000982522964477539 16484k 0.000982522964477539 8.11584329605103 0.0001 
