#set_size_in_keys sim_num_insn sim_num_refs sim_elapsed_time sim_inst_rate il1.accesses il1.hits il1.misses il1.replacements il1.writebacks il1.invalidations il1.miss_rate il1.repl_rate il1.wb_rate il1.inv_rate dl1.accesses dl1.hits dl1.misses dl1.replacements dl1.writebacks dl1.invalidations dl1.miss_rate dl1.repl_rate dl1.wb_rate dl1.inv_rate dl2.accesses dl2.hits dl2.misses dl2.replacements dl2.writebacks dl2.invalidations dl2.miss_rate dl2.repl_rate dl2.wb_rate dl2.inv_rate itlb.accesses itlb.hits itlb.misses itlb.replacements itlb.writebacks itlb.invalidations itlb.miss_rate itlb.repl_rate itlb.wb_rate itlb.inv_rate dtlb.accesses dtlb.hits dtlb.misses dtlb.replacements dtlb.writebacks dtlb.invalidations dtlb.miss_rate dtlb.repl_rate dtlb.wb_rate dtlb.inv_rate ld_text_base ld_text_size ld_data_base ld_data_size ld_stack_base ld_stack_size ld_prog_entry ld_environ_base ld_target_big_endian mem.page_count mem.page_mem mem.ptab_misses mem.ptab_accesses mem.ptab_miss_rate
4096 224.840087890625 65.987060546875 0.00244140625 92094.5000 224.840087890625 224.686767578125 0.1533203125 0.0908203125 0 0 0.0007 0.0004 0.0000 0.0000 66.004150390625 63.1669921875 2.837158203125 2.774658203125 1.578369140625 0 0.0430 0.0420 0.0239 0.0000 4.56884765625 4.078857421875 0.489990234375 0 0 0 0.1072 0.0000 0.0000 0.0000 224.840087890625 224.83740234375 0.002685546875 0 0 0 0.0000 0.0000 0.0000 0.0000 66.004150390625 66.00048828125 0.003662109375 0 0 0 0.0001 0.0000 0.0000 0.0000 0x00400000 10.296875 0x10000000 1 0x7fffc000 4 0x00400140 0x7fff8000 0 0.00634765625 104k 0.00634765625 1094.43408203125 0.0000 
8192 227.855102539062 67.2613525390625 0.0018310546875 124439.2667 227.855102539062 227.775146484375 0.0799560546875 0.0487060546875 0 0 0.0004 0.0002 0.0000 0.0000 67.2698974609375 64.4898681640625 2.780029296875 2.748779296875 1.5399169921875 0 0.0413 0.0409 0.0229 0.0000 4.39990234375 4.0264892578125 0.3734130859375 0 0 0 0.0849 0.0000 0.0000 0.0000 227.855102539062 227.853759765625 0.0013427734375 0 0 0 0.0000 0.0000 0.0000 0.0000 67.2698974609375 67.26708984375 0.0028076171875 0 0 0 0.0000 0.0000 0.0000 0.0000 0x00400000 5.15234375 0x10000000 0.5 0x7fffc000 2 0x00400140 0x7fff8000 0 0.004150390625 136k 0.004150390625 1077.51635742188 0.0000 
16384 254.881286621094 73.54833984375 0.0015869140625 160614.4231 254.881286621094 254.842834472656 0.0384521484375 0.0228271484375 0 0 0.0002 0.0001 0.0000 0.0000 73.5526123046875 70.2994995117188 3.25311279296875 3.23748779296875 1.77203369140625 0 0.0442 0.0440 0.0241 0.0000 5.0635986328125 4.753173828125 0.3104248046875 0 0 0 0.0613 0.0000 0.0000 0.0000 254.881286621094 254.880615234375 0.00067138671875 0 0 0 0.0000 0.0000 0.0000 0.0000 73.5526123046875 73.5502319335938 0.00238037109375 0 0 0 0.0000 0.0000 0.0000 0.0000 0x00400000 2.5771484375 0x10000000 0.25 0x7fffc000 1 0x00400140 0x7fff8000 0 0.0030517578125 200k 0.0030517578125 1182.41430664062 0.0000 
32768 259.160766601562 75.4945678710938 0.00140380859375 184612.6087 259.160766601562 259.140991210938 0.019775390625 0.011962890625 0 0 0.0001 0.0000 0.0000 0.0000 75.4967041015625 72.2586059570312 3.23809814453125 3.23028564453125 1.76174926757812 0 0.0429 0.0428 0.0233 0.0000 5.01962280273438 4.7388916015625 0.280731201171875 0 0 0 0.0559 0.0000 0.0000 0.0000 259.160766601562 259.160430908203 0.000335693359375 0 0 0 0.0000 0.0000 0.0000 0.0000 75.4967041015625 75.4945373535156 0.002166748046875 0 0 0 0.0000 0.0000 0.0000 0.0000 0x00400000 1.28955078125 0x10000000 0.125 0x7fffc000 0.5 0x00400140 0x7fff8000 0 0.00250244140625 328k 0.00250244140625 1195.53430175781 0.0000 
65536 287.114685058594 82.178466796875 0.0013275146484375 216279.8621 287.114685058594 287.105041503906 0.0096435546875 0.0057373046875 0 0 0.0000 0.0000 0.0000 0.0000 82.1795349121094 78.4474334716797 3.73210144042969 3.72819519042969 2.00794982910156 0 0.0454 0.0454 0.0244 0.0000 5.74969482421875 5.48455810546875 0.26513671875 0 0 0 0.0461 0.0000 0.0000 0.0000 287.114685058594 287.114517211914 0.0001678466796875 0 0 0 0.0000 0.0000 0.0000 0.0000 82.1795349121094 82.1766662597656 0.00286865234375 0.00091552734375 0.000640869140625 0 0.0000 0.0000 0.0000 0.0000 0x00400000 0.644775390625 0x10000000 0.0625 0x7fffc000 0.25 0x00400140 0x7fff8000 0 0.002227783203125 584k 0.002227783203125 1316.76672363281 0.0000 
131072 292.050651550293 84.3647308349609 0.001220703125 239247.8937 292.050651550293 292.045707702637 0.00494384765625 0.00299072265625 0 0 0.0000 0.0000 0.0000 0.0000 84.3652648925781 80.6376724243164 3.72759246826172 3.72563934326172 2.00470733642578 0 0.0442 0.0442 0.0238 0.0000 5.73724365234375 5.47955322265625 0.2576904296875 0 0 0 0.0449 0.0000 0.0000 0.0000 292.050651550293 292.050567626953 8.392333984375e-05 0 0 0 0.0000 0.0000 0.0000 0.0000 84.3652648925781 84.3505935668945 0.0146713256835938 0.0136947631835938 0.00833892822265625 0 0.0002 0.0002 0.0001 0.0000 0x00400000 0.3223876953125 0x10000000 0.03125 0x7fffc000 0.125 0x00400140 0x7fff8000 0 0.0020904541015625 1096k 0.0020904541015625 1338.90759277344 0.0000 
262144 320.099792480469 91.1208915710449 0.001068115234375 299686.5714 320.099792480469 320.097652435303 0.00214004516601562 0.00116348266601562 0 0 0.0000 0.0000 0.0000 0.0000 91.1211585998535 86.8943099975586 4.22684860229492 4.22587203979492 2.25443267822266 0 0.0464 0.0464 0.0247 0.0000 6.48342132568359 6.22986221313477 0.253559112548828 0 0 0 0.0391 0.0000 0.0000 0.0000 320.099792480469 320.099750518799 4.1961669921875e-05 0 0 0 0.0000 0.0000 0.0000 0.0000 91.1211585998535 91.1044273376465 0.0167312622070312 0.0162429809570312 0.00960159301757812 0 0.0002 0.0002 0.0001 0.0000 0x00400000 0.16119384765625 0x10000000 0.015625 0x7fffc000 0.0625 0x00400140 0x7fff8000 0 0.00202178955078125 2120k 0.00202178955078125 1463.62871551514 0.0000 
524288 324.931179046631 93.324535369873 0.000705718994140625 460425.7243 324.931179046631 324.929815292358 0.00136375427246094 0.000875473022460938 0 0 0.0000 0.0000 0.0000 0.0000 93.3246688842773 89.0974884033203 4.22718048095703 4.22669219970703 2.25442695617676 0 0.0453 0.0453 0.0242 0.0000 6.48297119140625 6.1951732635498 0.287797927856445 0.0377979278564453 0.0368328094482422 0 0.0444 0.0058 0.0057 0.0000 324.931179046631 324.931158065796 2.09808349609375e-05 0 0 0 0.0000 0.0000 0.0000 0.0000 93.3246688842773 93.3062324523926 0.0184364318847656 0.0181922912597656 0.0105762481689453 0 0.0002 0.0002 0.0001 0.0000 0x00400000 0.080596923828125 0x10000000 0.0078125 0x7fffc000 0.03125 0x00400140 0x7fff8000 0 0.0019989013671875 4192k 0.00611114501953125 1486.86766815186 0.0000 
1048576 353.025124549866 100.096316337585 0.000405311584472656 870996.8776 353.025124549866 353.024452209473 0.000672340393066406 0.000428199768066406 0 0 0.0000 0.0000 0.0000 0.0000 100.096383094788 95.3697319030762 4.72665119171143 4.72640705108643 2.50428867340088 0 0.0472 0.0472 0.0250 0.0000 7.23161220550537 6.35482883453369 0.87678337097168 0.75178337097168 0.563680648803711 0 0.1212 0.1040 0.0779 0.0000 353.025124549866 353.025114059448 1.04904174804688e-05 0 0 0 0.0000 0.0000 0.0000 0.0000 100.096383094788 100.076003074646 0.0203800201416016 0.0202579498291016 0.0116043090820312 0 0.0002 0.0002 0.0001 0.0000 0x00400000 0.0402984619140625 0x10000000 0.00390625 0x7fffc000 0.015625 0x00400140 0x7fff8000 0 0.00197601318359375 8288k 0.116097450256348 1612.54007148743 0.0001 
2097152 357.881866455078 102.297783851624 0.000260353088378906 1374601.9634 357.881866455078 357.881522655487 0.000343799591064453 0.000221729278564453 0 0 0.0000 0.0000 0.0000 0.0000 102.297817230225 97.5726175308228 4.72519969940186 4.72507762908936 2.50324583053589 0 0.0462 0.0462 0.0245 0.0000 7.22878932952881 6.10249185562134 1.12629747390747 1.06379747390747 0.719707012176514 0 0.1558 0.1472 0.0996 0.0000 357.881866455078 357.881861209869 5.24520874023438e-06 0 0 0 0.0000 0.0000 0.0000 0.0000 102.297817230225 102.275485992432 0.0223312377929688 0.0222702026367188 0.0126075744628906 0 0.0002 0.0002 0.0001 0.0000 0x00400000 0.0201492309570312 0x10000000 0.001953125 0x7fffc000 0.0078125 0x00400140 0x7fff8000 0 0.00196743011474609 16504k 0.058443546295166 1636.24650382996 0.0000 
4194304 386.012551546097 109.085446357727 0.000185728073120117 2078374.8254 386.012551546097 386.012383460999 0.000168085098266602 0.000107049942016602 0 0 0.0000 0.0000 0.0000 0.0000 109.085463047028 103.859420537949 5.22604250907898 5.22598147392273 2.75406408309937 0 0.0479 0.0479 0.0252 0.0000 7.98027467727661 6.60425901412964 1.37601566314697 1.34476566314697 0.860220432281494 0 0.1724 0.1685 0.1078 0.0000 386.012551546097 386.012548923492 2.62260437011719e-06 0 0 0 0.0000 0.0000 0.0000 0.0000 109.085463047028 109.061179637909 0.0242834091186523 0.0242528915405273 0.0135989189147949 0 0.0002 0.0002 0.0001 0.0000 0x00400000 0.0100746154785156 0x10000000 0.0009765625 0x7fffc000 0.00390625 0x00400140 0x7fff8000 0 0.00196313858032227 32936k 0.0327479839324951 1762.28283405304 0.0000 
