#set_size_in_keys sim_num_insn sim_num_refs sim_elapsed_time sim_inst_rate sim_num_branches sim_IPB bpred_2lev.lookups bpred_2lev.updates bpred_2lev.addr_hits bpred_2lev.dir_hits bpred_2lev.misses bpred_2lev.jr_hits bpred_2lev.jr_seen bpred_2lev.jr_non_ras_hits.PP bpred_2lev.jr_non_ras_seen.PP bpred_2lev.bpred_addr_rate bpred_2lev.bpred_dir_rate bpred_2lev.bpred_jr_rate bpred_2lev.bpred_jr_non_ras_rate.PP bpred_2lev.retstack_pushes bpred_2lev.retstack_pops bpred_2lev.used_ras.PP bpred_2lev.ras_hits.PP bpred_2lev.ras_rate.PP
4096 12067.9384765625 5184.67236328125 0.00146484375 8238379.3333 1952.10034179688 6.1820 1952.10034179688 1952.10034179688 1520.02416992188 1520.05297851562 432.04736328125 2.088134765625 2.08837890625 0 0 0.7787 0.7787 0.9999 <error: 2.0888671875 2.08837890625 2.08837890625 2.088134765625 0.9999 
8192 24236.7338867188 10411.1716308594 0.0029296875 8272805.1667 3919.75830078125 6.1832 3919.75830078125 3919.75830078125 3057.72436523438 3057.74011230469 862.018188476562 2.0440673828125 2.044189453125 0 0 0.7801 0.7801 0.9999 <error: 2.04443359375 2.044189453125 2.044189453125 2.0440673828125 0.9999 
16384 47174.5738525391 20290.9017333984 0.0054931640625 8587869.0889 7609.89819335938 6.1991 7609.89819335938 7609.89819335938 5963.32214355469 5963.32952880859 1646.56866455078 2.02203369140625 2.0220947265625 0 0 0.7836 0.7836 1.0000 <error: 2.022216796875 2.0220947265625 2.0220947265625 2.02203369140625 1.0000 
32768 94963.3854675293 40830.3743286133 0.011077880859375 8572342.1901 15327.8636474609 6.1955 15327.8636474609 15327.8636474609 12149.7124023438 12149.7163696289 3178.14727783203 2.01101684570312 2.01104736328125 0 0 0.7927 0.7927 1.0000 <error: 2.0111083984375 2.01104736328125 2.01104736328125 2.01101684570312 1.0000 
65536 190160.069900513 81728.2447509766 0.0224761962890625 8460509.3965 30714.157913208 6.1913 30714.157913208 30714.157913208 24478.2405548096 24478.2424316406 6235.91548156738 2.00550842285156 2.00552368164062 0 0 0.7970 0.7970 1.0000 <error: 2.00555419921875 2.00552368164062 2.00552368164062 2.00550842285156 1.0000 
