#set_size_in_keys sim_num_insn sim_num_refs sim_elapsed_time sim_inst_rate il1.accesses il1.hits il1.misses il1.replacements il1.writebacks il1.invalidations il1.miss_rate il1.repl_rate il1.wb_rate il1.inv_rate dl1.accesses dl1.hits dl1.misses dl1.replacements dl1.writebacks dl1.invalidations dl1.miss_rate dl1.repl_rate dl1.wb_rate dl1.inv_rate dl2.accesses dl2.hits dl2.misses dl2.replacements dl2.writebacks dl2.invalidations dl2.miss_rate dl2.repl_rate dl2.wb_rate dl2.inv_rate itlb.accesses itlb.hits itlb.misses itlb.replacements itlb.writebacks itlb.invalidations itlb.miss_rate itlb.repl_rate itlb.wb_rate itlb.inv_rate dtlb.accesses dtlb.hits dtlb.misses dtlb.replacements dtlb.writebacks dtlb.invalidations dtlb.miss_rate dtlb.repl_rate dtlb.wb_rate dtlb.inv_rate ld_text_base ld_text_size ld_data_base ld_data_size ld_stack_base ld_stack_size ld_prog_entry ld_environ_base ld_target_big_endian mem.page_count mem.page_mem mem.ptab_misses mem.ptab_accesses mem.ptab_miss_rate
4096 12067.9384765625 5184.67236328125 0.003662109375 3295351.7333 12067.9384765625 12067.83984375 0.0986328125 0.051025390625 0 0 0.0000 0.0000 0.0000 0.0000 5184.689453125 5119.90258789062 64.786865234375 64.724365234375 57.918212890625 0 0.0125 0.0125 0.0112 0.0000 122.8037109375 122.485107421875 0.318603515625 0.051025390625 0.008056640625 0 0.0026 0.0004 0.0001 0.0000 12067.9384765625 12067.9367675781 0.001708984375 0 0 0 0.0000 0.0000 0.0000 0.0000 5184.689453125 5184.68701171875 0.00244140625 0 0 0 0.0000 0.0000 0.0000 0.0000 0x00400000 6.546875 0x10000000 1 0x7fffc000 4 0x00400140 0x7fff8000 0 0.004150390625 68k 0.004150390625 58681.6870117188 0.0000 
8192 24236.7338867188 10411.1716308594 0.0072021484375 3365208.8814 24236.7338867188 24236.6844482422 0.0494384765625 0.0255126953125 0 0 0.0000 0.0000 0.0000 0.0000 10411.1801757812 10150.9645996094 260.215576171875 260.184326171875 237.663452148438 0 0.0250 0.0250 0.0228 0.0000 497.928466796875 497.706787109375 0.2216796875 0.025390625 0.00390625 0 0.0004 0.0001 0.0000 0.0000 24236.7338867188 24236.7330322266 0.0008544921875 0 0 0 0.0000 0.0000 0.0000 0.0000 10411.1801757812 10411.1784667969 0.001708984375 0 0 0 0.0000 0.0000 0.0000 0.0000 0x00400000 3.27734375 0x10000000 0.5 0x7fffc000 2 0x00400140 0x7fff8000 0 0.0025634765625 84k 0.0025634765625 117789.596435547 0.0000 
16384 47174.5738525391 20290.9017333984 0.01397705078125 3375145.0568 47174.5738525391 47174.5489501953 0.02490234375 0.01318359375 0 0 0.0000 0.0000 0.0000 0.0000 20290.9060058594 19656.1625366211 634.743469238281 634.727844238281 589.040832519531 0 0.0313 0.0313 0.0290 0.0000 1223.80920410156 1223.63604736328 0.17315673828125 0.01287841796875 0.0018310546875 0 0.0001 0.0000 0.0000 0.0000 47174.5738525391 47174.573425293 0.00042724609375 0 0 0 0.0000 0.0000 0.0000 0.0000 20290.9060058594 20290.9046630859 0.0013427734375 0 0 0 0.0000 0.0000 0.0000 0.0000 0x00400000 1.6396484375 0x10000000 0.25 0x7fffc000 1 0x00400140 0x7fff8000 0 0.00177001953125 116k 0.00177001953125 229290.263549805 0.0000 
32768 94963.3854675293 40830.3743286133 0.028106689453125 3378675.5863 94963.3854675293 94963.3729858398 0.012481689453125 0.006622314453125 0 0 0.0000 0.0000 0.0000 0.0000 40830.3764648438 39425.299407959 1405.07705688477 1405.06924438477 1289.22146606445 0 0.0344 0.0344 0.0316 0.0000 2694.31100463867 2694.16192626953 0.149078369140625 0.006439208984375 0.00091552734375 0 0.0001 0.0000 0.0000 0.0000 94963.3854675293 94963.3852539062 0.000213623046875 0 0 0 0.0000 0.0000 0.0000 0.0000 40830.3764648438 40830.3753051758 0.00115966796875 0 0 0 0.0000 0.0000 0.0000 0.0000 0x00400000 0.82080078125 0x10000000 0.125 0x7fffc000 0.5 0x00400140 0x7fff8000 0 0.001373291015625 180k 0.001373291015625 461519.378723145 0.0000 
65536 190160.069900513 81728.2447509766 0.055938720703125 3399435.4449 190160.069900513 190160.063659668 0.0062408447265625 0.0033111572265625 0 0 0.0000 0.0000 0.0000 0.0000 81728.2458190918 78784.9631500244 2943.28266906738 2943.27876281738 2663.67350769043 0 0.0360 0.0360 0.0326 0.0000 5606.96241760254 5606.82537841797 0.137039184570312 0.0032196044921875 0.000457763671875 0 0.0000 0.0000 0.0000 0.0000 190160.069900513 190160.069793701 0.0001068115234375 0 0 0 0.0000 0.0000 0.0000 0.0000 81728.2458190918 81728.2447509766 0.001068115234375 0 0 0 0.0000 0.0000 0.0000 0.0000 0x00400000 0.410400390625 0x10000000 0.0625 0x7fffc000 0.25 0x00400140 0x7fff8000 0 0.0011749267578125 308k 0.0011749267578125 924099.313201904 0.0000 
