#set_size_in_keys sim_num_insn sim_num_refs sim_elapsed_time sim_inst_rate sim_num_branches sim_IPB bpred_2lev.lookups bpred_2lev.updates bpred_2lev.addr_hits bpred_2lev.dir_hits bpred_2lev.misses bpred_2lev.jr_hits bpred_2lev.jr_seen bpred_2lev.jr_non_ras_hits.PP bpred_2lev.jr_non_ras_seen.PP bpred_2lev.bpred_addr_rate bpred_2lev.bpred_dir_rate bpred_2lev.bpred_jr_rate bpred_2lev.bpred_jr_non_ras_rate.PP bpred_2lev.retstack_pushes bpred_2lev.retstack_pops bpred_2lev.used_ras.PP bpred_2lev.ras_hits.PP bpred_2lev.ras_rate.PP
4096 12067.9384765625 5184.67236328125 0.00146484375 8238379.3333 1952.10034179688 6.1820 1952.10034179688 1952.10034179688 1471.65747070312 1471.68774414062 480.41259765625 2.088134765625 2.08837890625 0 0 0.7539 0.7539 0.9999 <error: 2.0888671875 2.08837890625 2.08837890625 2.088134765625 0.9999 
8192 24236.7338867188 10411.1716308594 0.0028076171875 8632492.3478 3919.75830078125 6.1832 3919.75830078125 3919.75830078125 2983.78601074219 2983.80200195312 935.956298828125 2.0440673828125 2.044189453125 0 0 0.7612 0.7612 0.9999 <error: 2.04443359375 2.044189453125 2.044189453125 2.0440673828125 0.9999 
16384 47174.5738525391 20290.9017333984 0.00555419921875 8493496.9011 7609.89819335938 6.1991 7609.89819335938 7609.89819335938 5842.43890380859 5842.44616699219 1767.45202636719 2.02203369140625 2.0220947265625 0 0 0.7677 0.7677 1.0000 <error: 2.022216796875 2.0220947265625 2.0220947265625 2.02203369140625 1.0000 
32768 94963.3854675293 40830.3743286133 0.0111083984375 8548791.7995 15327.8636474609 6.1955 15327.8636474609 15327.8636474609 11930.223815918 11930.2276000977 3397.63604736328 2.01101684570312 2.01104736328125 0 0 0.7783 0.7783 1.0000 <error: 2.0111083984375 2.01104736328125 2.01104736328125 2.01101684570312 1.0000 
65536 190160.069900513 81728.2447509766 0.0224609375 8466257.0251 30714.157913208 6.1913 30714.157913208 30714.157913208 24031.9124298096 24031.9144439697 6682.24346923828 2.00550842285156 2.00552368164062 0 0 0.7824 0.7824 1.0000 <error: 2.00555419921875 2.00552368164062 2.00552368164062 2.00550842285156 1.0000 
