#set_size_in_keys sim_num_insn sim_num_refs sim_elapsed_time sim_inst_rate il1.accesses il1.hits il1.misses il1.replacements il1.writebacks il1.invalidations il1.miss_rate il1.repl_rate il1.wb_rate il1.inv_rate dl1.accesses dl1.hits dl1.misses dl1.replacements dl1.writebacks dl1.invalidations dl1.miss_rate dl1.repl_rate dl1.wb_rate dl1.inv_rate dl2.accesses dl2.hits dl2.misses dl2.replacements dl2.writebacks dl2.invalidations dl2.miss_rate dl2.repl_rate dl2.wb_rate dl2.inv_rate itlb.accesses itlb.hits itlb.misses itlb.replacements itlb.writebacks itlb.invalidations itlb.miss_rate itlb.repl_rate itlb.wb_rate itlb.inv_rate dtlb.accesses dtlb.hits dtlb.misses dtlb.replacements dtlb.writebacks dtlb.invalidations dtlb.miss_rate dtlb.repl_rate dtlb.wb_rate dtlb.inv_rate ld_text_base ld_text_size ld_data_base ld_data_size ld_stack_base ld_stack_size ld_prog_entry ld_environ_base ld_target_big_endian mem.page_count mem.page_mem mem.ptab_misses mem.ptab_accesses mem.ptab_miss_rate
4096 12067.9384765625 5184.67236328125 0.004150390625 2907663.2941 12067.9384765625 12067.8540039062 0.08447265625 0.02197265625 0 0 0.0000 0.0000 0.0000 0.0000 5184.689453125 5119.92016601562 64.769287109375 64.706787109375 57.900634765625 0 0.0125 0.0125 0.0112 0.0000 122.75439453125 122.44384765625 0.310546875 0 0 0 0.0025 0.0000 0.0000 0.0000 12067.9384765625 12067.9367675781 0.001708984375 0 0 0 0.0000 0.0000 0.0000 0.0000 5184.689453125 5184.68701171875 0.00244140625 0 0 0 0.0000 0.0000 0.0000 0.0000 0x00400000 6.546875 0x10000000 1 0x7fffc000 4 0x00400140 0x7fff8000 0 0.004150390625 68k 0.004150390625 58681.6870117188 0.0000 
8192 24236.7338867188 10411.1716308594 0.007568359375 3202376.1935 24236.7338867188 24236.6915283203 0.0423583984375 0.0111083984375 0 0 0.0000 0.0000 0.0000 0.0000 10411.1801757812 10150.9897460938 260.1904296875 260.1591796875 237.638549804688 0 0.0250 0.0250 0.0228 0.0000 497.871337890625 497.653442382812 0.2178955078125 0 0 0 0.0004 0.0000 0.0000 0.0000 24236.7338867188 24236.7330322266 0.0008544921875 0 0 0 0.0000 0.0000 0.0000 0.0000 10411.1801757812 10411.1784667969 0.001708984375 0 0 0 0.0000 0.0000 0.0000 0.0000 0x00400000 3.27734375 0x10000000 0.5 0x7fffc000 2 0x00400140 0x7fff8000 0 0.0025634765625 84k 0.0025634765625 117789.596435547 0.0000 
16384 47174.5738525391 20290.9017333984 0.01416015625 3331500.9397 47174.5738525391 47174.5529785156 0.0208740234375 0.0052490234375 0 0 0.0000 0.0000 0.0000 0.0000 20290.9060058594 19656.1967163086 634.709289550781 634.693664550781 589.0087890625 0 0.0313 0.0313 0.0290 0.0000 1223.73895263672 1223.56768798828 0.1712646484375 0 0 0 0.0001 0.0000 0.0000 0.0000 47174.5738525391 47174.573425293 0.00042724609375 0 0 0 0.0000 0.0000 0.0000 0.0000 20290.9060058594 20290.9046630859 0.0013427734375 0 0 0 0.0000 0.0000 0.0000 0.0000 0x00400000 1.6396484375 0x10000000 0.25 0x7fffc000 1 0x00400140 0x7fff8000 0 0.00177001953125 116k 0.00177001953125 229290.263549805 0.0000 
32768 94963.3854675293 40830.3743286133 0.027984619140625 3393413.5387 94963.3854675293 94963.375 0.010467529296875 0.002655029296875 0 0 0.0000 0.0000 0.0000 0.0000 40830.3764648438 39425.3260192871 1405.05044555664 1405.04263305664 1289.19641113281 0 0.0344 0.0344 0.0316 0.0000 2694.25732421875 2694.10916137695 0.148162841796875 0 0 0 0.0001 0.0000 0.0000 0.0000 94963.3854675293 94963.3852539062 0.000213623046875 0 0 0 0.0000 0.0000 0.0000 0.0000 40830.3764648438 40830.3753051758 0.00115966796875 0 0 0 0.0000 0.0000 0.0000 0.0000 0x00400000 0.82080078125 0x10000000 0.125 0x7fffc000 0.5 0x00400140 0x7fff8000 0 0.001373291015625 180k 0.001373291015625 461519.378723145 0.0000 
65536 190160.069900513 81728.2447509766 0.0556182861328125 3419020.6697 190160.069900513 190160.064666748 0.0052337646484375 0.0013275146484375 0 0 0.0000 0.0000 0.0000 0.0000 81728.2458190918 78784.9897613525 2943.25605773926 2943.25215148926 2663.64839172363 0 0.0360 0.0360 0.0326 0.0000 5606.90968322754 5606.77310180664 0.136581420898438 0 0 0 0.0000 0.0000 0.0000 0.0000 190160.069900513 190160.069793701 0.0001068115234375 0 0 0 0.0000 0.0000 0.0000 0.0000 81728.2458190918 81728.2447509766 0.001068115234375 0 0 0 0.0000 0.0000 0.0000 0.0000 0x00400000 0.410400390625 0x10000000 0.0625 0x7fffc000 0.25 0x00400140 0x7fff8000 0 0.0011749267578125 308k 0.0011749267578125 924099.313201904 0.0000 
