#set_size_in_keys sim_num_insn sim_num_refs sim_elapsed_time sim_inst_rate sim_num_branches sim_IPB bpred_bimod.lookups bpred_bimod.updates bpred_bimod.addr_hits bpred_bimod.dir_hits bpred_bimod.misses bpred_bimod.jr_hits bpred_bimod.jr_seen bpred_bimod.jr_non_ras_hits.PP bpred_bimod.jr_non_ras_seen.PP bpred_bimod.bpred_addr_rate bpred_bimod.bpred_dir_rate bpred_bimod.bpred_jr_rate bpred_bimod.bpred_jr_non_ras_rate.PP bpred_bimod.retstack_pushes bpred_bimod.retstack_pops bpred_bimod.used_ras.PP bpred_bimod.ras_hits.PP bpred_bimod.ras_rate.PP
4096 12067.9384765625 5184.67236328125 0.00146484375 8238379.3333 1952.10034179688 6.1820 1952.10034179688 1952.10034179688 1605.50561523438 1605.53051757812 346.56982421875 2.088134765625 2.08837890625 0 0 0.8225 0.8225 0.9999 <error: 2.0888671875 2.08837890625 2.08837890625 2.088134765625 0.9999 
8192 24236.7338867188 10411.1716308594 0.0028076171875 8632492.3478 3919.75830078125 6.1832 3919.75830078125 3919.75830078125 3220.19873046875 3220.21142578125 699.546875 2.0440673828125 2.044189453125 0 0 0.8215 0.8215 0.9999 <error: 2.04443359375 2.044189453125 2.044189453125 2.0440673828125 0.9999 
16384 47174.5738525391 20290.9017333984 0.00537109375 8783047.9318 7609.89819335938 6.1991 7609.89819335938 7609.89819335938 6237.62609863281 6237.63232421875 1372.26586914062 2.02203369140625 2.0220947265625 0 0 0.8197 0.8197 1.0000 <error: 2.022216796875 2.0220947265625 2.0220947265625 2.02203369140625 1.0000 
32768 94963.3854675293 40830.3743286133 0.0108642578125 8740899.4803 15327.8636474609 6.1955 15327.8636474609 15327.8636474609 12607.5534667969 12607.5566711426 2720.30697631836 2.01101684570312 2.01104736328125 0 0 0.8225 0.8225 1.0000 <error: 2.0111083984375 2.01104736328125 2.01104736328125 2.01101684570312 1.0000 
65536 190160.069900513 81728.2447509766 0.0219879150390625 8648390.2436 30714.157913208 6.1913 30714.157913208 30714.157913208 25239.9070739746 25239.9086608887 5474.24925231934 2.00550842285156 2.00552368164062 0 0 0.8218 0.8218 1.0000 <error: 2.00555419921875 2.00552368164062 2.00552368164062 2.00550842285156 1.0000 
