#set_size_in_keys sim_num_insn sim_num_refs sim_elapsed_time sim_inst_rate il1.accesses il1.hits il1.misses il1.replacements il1.writebacks il1.invalidations il1.miss_rate il1.repl_rate il1.wb_rate il1.inv_rate dl1.accesses dl1.hits dl1.misses dl1.replacements dl1.writebacks dl1.invalidations dl1.miss_rate dl1.repl_rate dl1.wb_rate dl1.inv_rate dl2.accesses dl2.hits dl2.misses dl2.replacements dl2.writebacks dl2.invalidations dl2.miss_rate dl2.repl_rate dl2.wb_rate dl2.inv_rate itlb.accesses itlb.hits itlb.misses itlb.replacements itlb.writebacks itlb.invalidations itlb.miss_rate itlb.repl_rate itlb.wb_rate itlb.inv_rate dtlb.accesses dtlb.hits dtlb.misses dtlb.replacements dtlb.writebacks dtlb.invalidations dtlb.miss_rate dtlb.repl_rate dtlb.wb_rate dtlb.inv_rate ld_text_base ld_text_size ld_data_base ld_data_size ld_stack_base ld_stack_size ld_prog_entry ld_environ_base ld_target_big_endian mem.page_count mem.page_mem mem.ptab_misses mem.ptab_accesses mem.ptab_miss_rate
4096 217.207275390625 66.320556640625 0.00244140625 88968.1000 217.207275390625 217.09423828125 0.113037109375 0.050537109375 0 0 0.0005 0.0002 0.0000 0.0000 66.337646484375 63.47314453125 2.864501953125 2.802001953125 1.576171875 0 0.0432 0.0422 0.0238 0.0000 4.5537109375 4.0986328125 0.455078125 0 0 0 0.0999 0.0000 0.0000 0.0000 217.207275390625 217.205322265625 0.001953125 0 0 0 0.0000 0.0000 0.0000 0.0000 66.337646484375 66.333984375 0.003662109375 0 0 0 0.0001 0.0000 0.0000 0.0000 0x00400000 7.5390625 0x10000000 1 0x7fffc000 4 0x00400140 0x7fff8000 0 0.005615234375 92k 0.005615234375 1048.01171875 0.0000 
8192 234.251831054688 71.858642578125 0.0018310546875 127932.7333 234.251831054688 234.191284179688 0.060546875 0.029296875 0 0 0.0003 0.0001 0.0000 0.0000 71.8671875 68.55859375 3.30859375 3.27734375 1.788818359375 0 0.0460 0.0456 0.0249 0.0000 5.157958984375 4.8023681640625 0.3555908203125 0 0 0 0.0689 0.0000 0.0000 0.0000 234.251831054688 234.250854492188 0.0009765625 0 0 0 0.0000 0.0000 0.0000 0.0000 71.8671875 71.8643798828125 0.0028076171875 0 0 0 0.0000 0.0000 0.0000 0.0000 0x00400000 3.7734375 0x10000000 0.5 0x7fffc000 2 0x00400140 0x7fff8000 0 0.0037841796875 124k 0.0037841796875 1104.01879882812 0.0000 
16384 247.237609863281 73.8760375976562 0.001708984375 144669.3214 247.237609863281 247.208618164062 0.02899169921875 0.01336669921875 0 0 0.0001 0.0001 0.0000 0.0000 73.8803100585938 70.6002197265625 3.28009033203125 3.26446533203125 1.77001953125 0 0.0444 0.0442 0.0240 0.0000 5.0791015625 4.77716064453125 0.30194091796875 0 0 0 0.0594 0.0000 0.0000 0.0000 247.237609863281 247.237121582031 0.00048828125 0 0 0 0.0000 0.0000 0.0000 0.0000 73.8803100585938 73.8779296875 0.00238037109375 0 0 0 0.0000 0.0000 0.0000 0.0000 0x00400000 1.8876953125 0x10000000 0.25 0x7fffc000 1 0x00400140 0x7fff8000 0 0.00286865234375 188k 0.00286865234375 1148.35546875 0.0000 
32768 265.738555908203 80.137451171875 0.001495361328125 177708.5918 265.738555908203 265.723022460938 0.015533447265625 0.007720947265625 0 0 0.0001 0.0000 0.0000 0.0000 80.1395874023438 76.3734741210938 3.76611328125 3.75830078125 2.01065063476562 0 0.0470 0.0469 0.0251 0.0000 5.79229736328125 5.51565551757812 0.276641845703125 0 0 0 0.0478 0.0000 0.0000 0.0000 265.738555908203 265.738311767578 0.000244140625 0 0 0 0.0000 0.0000 0.0000 0.0000 80.1395874023438 80.1374206542969 0.002166748046875 0 0 0 0.0000 0.0000 0.0000 0.0000 0x00400000 0.94482421875 0x10000000 0.125 0x7fffc000 0.5 0x00400140 0x7fff8000 0 0.002410888671875 316k 0.002410888671875 1229.06146240234 0.0000 
65536 279.559234619141 82.5311431884766 0.0013580322265625 205856.1124 279.559234619141 279.551773071289 0.0074615478515625 0.0035552978515625 0 0 0.0000 0.0000 0.0000 0.0000 82.5322113037109 78.7732238769531 3.75898742675781 3.75508117675781 2.00596618652344 0 0.0455 0.0455 0.0243 0.0000 5.77241516113281 5.5093994140625 0.263015747070312 0 0 0 0.0456 0.0000 0.0000 0.0000 279.559234619141 279.559112548828 0.0001220703125 0 0 0 0.0000 0.0000 0.0000 0.0000 82.5322113037109 82.5281829833984 0.0040283203125 0.0020751953125 0.0011749267578125 0 0.0000 0.0000 0.0000 0.0000 0x00400000 0.472412109375 0x10000000 0.0625 0x7fffc000 0.25 0x00400140 0x7fff8000 0 0.0021820068359375 572k 0.0021820068359375 1286.21539306641 0.0000 
131072 298.643035888672 89.0120086669922 0.001190185546875 250921.4103 298.643035888672 298.639144897461 0.0038909912109375 0.0019378662109375 0 0 0.0000 0.0000 0.0000 0.0000 89.0125427246094 84.7570495605469 4.2554931640625 4.2535400390625 2.25361633300781 0 0.0478 0.0478 0.0253 0.0000 6.51300048828125 6.25633239746094 0.256668090820312 0 0 0 0.0394 0.0000 0.0000 0.0000 298.643035888672 298.642974853516 6.103515625e-05 0 0 0 0.0000 0.0000 0.0000 0.0000 89.0125427246094 88.980110168457 0.0324325561523438 0.0314559936523438 0.0164642333984375 0 0.0004 0.0004 0.0002 0.0000 0x00400000 0.2362060546875 0x10000000 0.03125 0x7fffc000 0.125 0x00400140 0x7fff8000 0 0.00206756591796875 1084k 0.00206756591796875 1374.05424499512 0.0000 
262144 312.548473358154 91.4739418029785 0.000835418701171875 374121.9498 312.548473358154 312.546607971191 0.00186538696289062 0.000888824462890625 0 0 0.0000 0.0000 0.0000 0.0000 91.4742088317871 87.2204971313477 4.25371170043945 4.25273513793945 2.25244903564453 0 0.0465 0.0465 0.0246 0.0000 6.50802612304688 5.88703918457031 0.620986938476562 0.370986938476562 0.369964599609375 0 0.0954 0.0570 0.0568 0.0000 312.548473358154 312.548442840576 3.0517578125e-05 0 0 0 0.0000 0.0000 0.0000 0.0000 91.4742088317871 91.4408111572266 0.0333976745605469 0.0329093933105469 0.0174446105957031 0 0.0004 0.0004 0.0002 0.0000 0x00400000 0.11810302734375 0x10000000 0.015625 0x7fffc000 0.0625 0x00400140 0x7fff8000 0 0.00201034545898438 2108k 0.00201034545898438 1433.8708190918 0.0000 
524288 331.539119720459 97.9747428894043 0.000528335571289062 627516.1805 331.539119720459 331.538139343262 0.000980377197265625 0.000492095947265625 0 0 0.0000 0.0000 0.0000 0.0000 97.9748764038086 93.2198104858398 4.75506591796875 4.75457763671875 2.50334739685059 0 0.0485 0.0485 0.0256 0.0000 7.2593936920166 6.04559516906738 1.21379852294922 1.08879852294922 0.885000228881836 0 0.1672 0.1500 0.1219 0.0000 331.539119720459 331.53910446167 1.52587890625e-05 0 0 0 0.0000 0.0000 0.0000 0.0000 97.9748764038086 97.9376049041748 0.0372714996337891 0.0370273590087891 0.0195159912109375 0 0.0004 0.0004 0.0002 0.0000 0x00400000 0.059051513671875 0x10000000 0.0078125 0x7fffc000 0.03125 0x00400140 0x7fff8000 0 0.00199317932128906 4180k 0.0059051513671875 1522.47048568726 0.0000 
1048576 345.473488807678 100.448742866516 0.000371932983398438 928859.5103 345.473488807678 345.47299861908 0.000490188598632812 0.000246047973632812 0 0 0.0000 0.0000 0.0000 0.0000 100.448809623718 95.6952886581421 4.75352096557617 4.75327682495117 2.5023078918457 0 0.0473 0.0473 0.0249 0.0000 7.25631904602051 6.05215358734131 1.2041654586792 1.1416654586792 0.906991004943848 0 0.1659 0.1573 0.1250 0.0000 345.473488807678 345.473481178284 7.62939453125e-06 0 0 0 0.0000 0.0000 0.0000 0.0000 100.448809623718 100.411556243896 0.0372533798217773 0.0371313095092773 0.0195636749267578 0 0.0004 0.0004 0.0002 0.0000 0x00400000 0.0295257568359375 0x10000000 0.00390625 0x7fffc000 0.015625 0x00400140 0x7fff8000 0 0.00197315216064453 8276k 0.0996980667114258 1582.97370147705 0.0001 
2097152 364.478935241699 106.94459438324 0.000308036804199219 1183231.7771 364.478935241699 364.4786901474 0.000245094299316406 0.000123023986816406 0 0 0.0000 0.0000 0.0000 0.0000 106.944627761841 101.691508769989 5.25311899185181 5.25299692153931 2.75216293334961 0 0.0491 0.0491 0.0257 0.0000 8.00552701950073 6.30590629577637 1.69962072372437 1.66837072372437 1.16833734512329 0 0.2123 0.2084 0.1459 0.0000 364.478935241699 364.478931427002 3.814697265625e-06 0 0 0 0.0000 0.0000 0.0000 0.0000 106.944627761841 106.903470039368 0.0411577224731445 0.0410966873168945 0.0215449333190918 0 0.0004 0.0004 0.0002 0.0000 0x00400000 0.0147628784179688 0x10000000 0.001953125 0x7fffc000 0.0078125 0x00400140 0x7fff8000 0 0.00196599960327148 16492k 0.0530352592468262 1671.89605998993 0.0000 
4194304 378.471074342728 109.439668893814 0.000287055969238281 1318457.4261 378.471074342728 378.470951795578 0.000122547149658203 6.15119934082031e-05 0 0 0.0000 0.0000 0.0000 0.0000 109.439685583115 104.186769723892 5.25291585922241 5.25285482406616 2.75208640098572 0 0.0480 0.0480 0.0251 0.0000 8.00512480735779 6.30782747268677 1.69729733467102 1.68167233467102 1.17395448684692 0 0.2120 0.2101 0.1467 0.0000 378.471074342728 378.471072435379 1.9073486328125e-06 0 0 0 0.0000 0.0000 0.0000 0.0000 109.439685583115 109.398530960083 0.0411546230316162 0.0411241054534912 0.0215582847595215 0 0.0004 0.0004 0.0002 0.0000 0x00400000 0.00738143920898438 0x10000000 0.0009765625 0x7fffc000 0.00390625 0x00400140 0x7fff8000 0 0.00196242332458496 32924k 0.0292527675628662 1732.80920028687 0.0000 
