#set_size_in_keys sim_num_insn sim_num_refs sim_elapsed_time sim_inst_rate il1.accesses il1.hits il1.misses il1.replacements il1.writebacks il1.invalidations il1.miss_rate il1.repl_rate il1.wb_rate il1.inv_rate dl1.accesses dl1.hits dl1.misses dl1.replacements dl1.writebacks dl1.invalidations dl1.miss_rate dl1.repl_rate dl1.wb_rate dl1.inv_rate dl2.accesses dl2.hits dl2.misses dl2.replacements dl2.writebacks dl2.invalidations dl2.miss_rate dl2.repl_rate dl2.wb_rate dl2.inv_rate itlb.accesses itlb.hits itlb.misses itlb.replacements itlb.writebacks itlb.invalidations itlb.miss_rate itlb.repl_rate itlb.wb_rate itlb.inv_rate dtlb.accesses dtlb.hits dtlb.misses dtlb.replacements dtlb.writebacks dtlb.invalidations dtlb.miss_rate dtlb.repl_rate dtlb.wb_rate dtlb.inv_rate ld_text_base ld_text_size ld_data_base ld_data_size ld_stack_base ld_stack_size ld_prog_entry ld_environ_base ld_target_big_endian mem.page_count mem.page_mem mem.ptab_misses mem.ptab_accesses mem.ptab_miss_rate
4096 221.5302734375 48.34619140625 0.000732421875 302462.6667 221.5302734375 221.42822265625 0.10205078125 0.03955078125 0 0 0.0005 0.0002 0.0000 0.0000 52.36572265625 51.10009765625 1.265625 1.203125 1.05322265625 0 0.0242 0.0230 0.0201 0.0000 2.4208984375 2.093505859375 0.327392578125 0 0 0 0.1352 0.0000 0.0000 0.0000 221.5302734375 221.52734375 0.0029296875 0 0 0 0.0000 0.0000 0.0000 0.0000 52.36572265625 52.363037109375 0.002685546875 0 0 0 0.0001 0.0000 0.0000 0.0000 0x00400000 18.82421875 0x10000000 2.0126953125 0x7fffc000 4 0x00400140 0x7fff8000 0 0.00732421875 120k 0.00732421875 1107.46240234375 0.0000 
8192 240.509887695312 51.941650390625 0.000732421875 328376.1667 240.509887695312 240.458740234375 0.0511474609375 0.0198974609375 0 0 0.0002 0.0001 0.0000 0.0000 55.951416015625 53.5146484375 2.436767578125 2.405517578125 2.0404052734375 0 0.0436 0.0430 0.0365 0.0000 4.5283203125 4.302001953125 0.226318359375 0 0 0 0.0500 0.0000 0.0000 0.0000 240.509887695312 240.508422851562 0.00146484375 0 0 0 0.0000 0.0000 0.0000 0.0000 55.951416015625 55.9495849609375 0.0018310546875 0 0 0 0.0000 0.0000 0.0000 0.0000 0x00400000 9.416015625 0x10000000 1.00634765625 0x7fffc000 2 0x00400140 0x7fff8000 0 0.004150390625 136k 0.004150390625 1132.27075195312 0.0000 
16384 259.418701171875 55.6841430664062 0.0006103515625 425031.6000 259.418701171875 259.393493652344 0.02520751953125 0.00958251953125 0 0 0.0001 0.0000 0.0000 0.0000 59.6890258789062 55.8162841796875 3.87274169921875 3.85711669921875 3.2047119140625 0 0.0649 0.0646 0.0537 0.0000 7.1026611328125 6.92755126953125 0.17510986328125 0 0 0 0.0247 0.0000 0.0000 0.0000 259.418701171875 259.41796875 0.000732421875 0 0 0 0.0000 0.0000 0.0000 0.0000 59.6890258789062 59.6876220703125 0.00140380859375 0 0 0 0.0000 0.0000 0.0000 0.0000 0x00400000 4.708984375 0x10000000 0.503173828125 0x7fffc000 1 0x00400140 0x7fff8000 0 0.0025634765625 168k 0.0025634765625 1186.22290039062 0.0000 
32768 278.796264648438 59.5835266113281 0.000457763671875 609039.7333 278.796264648438 278.783386230469 0.01287841796875 0.00506591796875 0 0 0.0000 0.0000 0.0000 0.0000 63.5859680175781 58.198486328125 5.38748168945312 5.37966918945312 4.4251708984375 0 0.0847 0.0846 0.0696 0.0000 9.82553100585938 9.67514038085938 0.150390625 0 0 0 0.0153 0.0000 0.0000 0.0000 278.796264648438 278.7958984375 0.0003662109375 0 0 0 0.0000 0.0000 0.0000 0.0000 63.5859680175781 63.5847778320312 0.001190185546875 0 0 0 0.0000 0.0000 0.0000 0.0000 0x00400000 2.35498046875 0x10000000 0.2515869140625 0x7fffc000 0.5 0x00400140 0x7fff8000 0 0.00177001953125 232k 0.00177001953125 1256.94494628906 0.0000 
65536 298.232284545898 63.5330505371094 0.0004425048828125 673963.8276 298.232284545898 298.225875854492 0.00640869140625 0.00250244140625 0 0 0.0000 0.0000 0.0000 0.0000 67.5342712402344 60.6160278320312 6.91824340820312 6.91433715820312 5.66215515136719 0 0.1024 0.1024 0.0838 0.0000 12.5868072509766 12.4491271972656 0.137680053710938 0 0 0 0.0109 0.0000 0.0000 0.0000 298.232284545898 298.23210144043 0.00018310546875 0 0 0 0.0000 0.0000 0.0000 0.0000 67.5342712402344 67.5331878662109 0.0010833740234375 0 0 0 0.0000 0.0000 0.0000 0.0000 0x00400000 1.177490234375 0x10000000 0.12579345703125 0x7fffc000 0.25 0x00400140 0x7fff8000 0 0.001373291015625 360k 0.001373291015625 1335.29165649414 0.0000 
131072 317.671813964844 67.5033798217773 0.0004119873046875 771071.8519 317.671813964844 317.668609619141 0.003204345703125 0.001251220703125 0 0 0.0000 0.0000 0.0000 0.0000 71.5039901733398 63.0634231567383 8.44056701660156 8.43861389160156 6.88151550292969 0 0.1180 0.1180 0.0962 0.0000 15.3252868652344 15.1939468383789 0.131340026855469 0 0 0 0.0086 0.0000 0.0000 0.0000 317.671813964844 317.671722412109 9.1552734375e-05 0 0 0 0.0000 0.0000 0.0000 0.0000 71.5039901733398 71.5027008056641 0.00128936767578125 0.00031280517578125 0.00026702880859375 0 0.0000 0.0000 0.0000 0.0000 0x00400000 0.5887451171875 0x10000000 0.062896728515625 0x7fffc000 0.125 0x00400140 0x7fff8000 0 0.0011749267578125 616k 0.0011749267578125 1417.34222412109 0.0000 
262144 337.153121948242 71.4904403686523 0.0003662109375 920652.7917 337.153121948242 337.151519775391 0.0016021728515625 0.0006256103515625 0 0 0.0000 0.0000 0.0000 0.0000 75.4907455444336 65.5616607666016 9.92908477783203 9.92810821533203 8.07482147216797 0 0.1315 0.1315 0.1070 0.0000 18.0055084228516 17.8773384094238 0.128170013427734 0 0 0 0.0071 0.0000 0.0000 0.0000 337.153121948242 337.153076171875 4.57763671875e-05 0 0 0 0.0000 0.0000 0.0000 0.0000 75.4907455444336 75.0822486877441 0.408496856689453 0.408008575439453 0.382503509521484 0 0.0054 0.0054 0.0051 0.0000 0x00400000 0.29437255859375 0x10000000 0.0314483642578125 0x7fffc000 0.0625 0x00400140 0x7fff8000 0 0.00107574462890625 1128k 0.00107574462890625 1501.41747283936 0.0000 
524288 356.642242431641 75.4841709136963 0.0002899169921875 1230152.9474 356.642242431641 356.641443252563 0.000799179077148438 0.000310897827148438 0 0 0.0000 0.0000 0.0000 0.0000 79.4843235015869 68.0851268768311 11.3991966247559 11.3987083435059 9.24944114685059 0 0.1434 0.1434 0.1164 0.0000 20.6494369506836 20.5212783813477 0.128158569335938 0.0031585693359375 0.00280952453613281 0 0.0062 0.0002 0.0001 0.0000 356.642242431641 356.642219543457 2.288818359375e-05 0 0 0 0.0000 0.0000 0.0000 0.0000 79.4843235015869 78.1483325958252 1.33599090576172 1.33574676513672 1.26587295532227 0 0.0168 0.0168 0.0159 0.0000 0x00400000 0.147186279296875 0x10000000 0.0157241821289062 0x7fffc000 0.03125 0x00400140 0x7fff8000 0 0.00102615356445312 2152k 0.00102615356445312 1586.4493637085 0.0000 
1048576 376.12487411499 79.4787740707397 0.000227928161621094 1650190.4435 376.12487411499 376.124474525452 0.000399589538574219 0.000155448913574219 0 0 0.0000 0.0000 0.0000 0.0000 83.4788503646851 70.6313333511353 12.8475170135498 12.8472728729248 10.4083023071289 0 0.1539 0.1539 0.1247 0.0000 23.2562189102173 22.1154537200928 1.14076519012451 1.07826519012451 0.933457374572754 0 0.0491 0.0464 0.0401 0.0000 376.12487411499 376.124862670898 1.1444091796875e-05 0 0 0 0.0000 0.0000 0.0000 0.0000 83.4788503646851 80.9975919723511 2.48125839233398 2.48113632202148 2.3755989074707 0 0.0297 0.0297 0.0285 0.0000 0x00400000 0.0735931396484375 0x10000000 0.00786209106445312 0x7fffc000 0.015625 0x00400140 0x7fff8000 0 0.00100135803222656 4200k 0.00100135803222656 1671.91307067871 0.0000 
2097152 395.63115978241 83.4785284996033 0.000217914581298828 1815533.2123 395.63115978241 395.63095998764 0.000199794769287109 7.77244567871094e-05 0 0 0.0000 0.0000 0.0000 0.0000 87.4785666465759 73.2016048431396 14.2769618034363 14.2768397331238 11.5517520904541 0 0.1632 0.1632 0.1321 0.0000 25.8289136886597 23.4517769813538 2.37713670730591 2.34588670730591 1.980393409729 0 0.0920 0.0908 0.0767 0.0000 395.63115978241 395.631154060364 5.7220458984375e-06 0 0 0 0.0000 0.0000 0.0000 0.0000 87.4785666465759 83.7759599685669 3.70260667800903 3.70254564285278 3.57342958450317 0 0.0423 0.0423 0.0408 0.0000 0x00400000 0.0367965698242188 0x10000000 0.00393104553222656 0x7fffc000 0.0078125 0x00400140 0x7fff8000 0 0.000988960266113281 8296k 0.000988960266113281 1757.70970916748 0.0000 
4194304 415.137232542038 87.4792141914368 0.000188350677490234 2204065.5127 415.137232542038 415.137132644653 9.98973846435547e-05 3.88622283935547e-05 0 0 0.0000 0.0000 0.0000 0.0000 91.4792332649231 75.7929110527039 15.6863222122192 15.686261177063 12.6792097091675 0 0.1715 0.1715 0.1386 0.0000 28.3656318187714 24.5385720729828 3.82705974578857 3.81143474578857 3.16969394683838 0 0.1349 0.1344 0.1117 0.0000 415.137232542038 415.137229681015 2.86102294921875e-06 0 0 0 0.0000 0.0000 0.0000 0.0000 91.4792332649231 86.5410079956055 4.93822526931763 4.9381947517395 4.79396319389343 0 0.0540 0.0540 0.0524 0.0000 0x00400000 0.0183982849121094 0x10000000 0.00196552276611328 0x7fffc000 0.00390625 0x00400140 0x7fff8000 0 0.000982761383056641 16488k 0.000982761383056641 1843.62136507034 0.0000 
