#set_size_in_keys sim_num_insn sim_num_refs sim_elapsed_time sim_inst_rate sim_num_branches sim_IPB bpred_2lev.lookups bpred_2lev.updates bpred_2lev.addr_hits bpred_2lev.dir_hits bpred_2lev.misses bpred_2lev.jr_hits bpred_2lev.jr_seen bpred_2lev.jr_non_ras_hits.PP bpred_2lev.jr_non_ras_seen.PP bpred_2lev.bpred_addr_rate bpred_2lev.bpred_dir_rate bpred_2lev.bpred_jr_rate bpred_2lev.bpred_jr_non_ras_rate.PP bpred_2lev.retstack_pushes bpred_2lev.retstack_pops bpred_2lev.used_ras.PP bpred_2lev.ras_hits.PP bpred_2lev.ras_rate.PP
4096 221.5302734375 48.34619140625 0.000244140625 907388.0000 43.173095703125 5.1312 43.173095703125 43.173095703125 35.832763671875 35.856689453125 7.31640625 0.013427734375 0.013671875 0 0 0.8300 0.8305 0.9821 <error: 0.01416015625 0.013671875 0.013671875 0.013427734375 0.9821 
8192 240.509887695312 51.941650390625 0.0001220703125 1970257.0000 47.1280517578125 5.1033 47.1280517578125 47.1280517578125 39.390380859375 39.402099609375 7.7259521484375 0.0067138671875 0.0068359375 0 0 0.8358 0.8361 0.9821 <error: 0.007080078125 0.0068359375 0.0068359375 0.0067138671875 0.9821 
16384 259.418701171875 55.6841430664062 6.103515625e-05 4250316.0000 51.0299682617188 5.0837 51.0299682617188 51.0299682617188 42.88037109375 42.88671875 8.14324951171875 0.00335693359375 0.00341796875 0 0 0.8403 0.8404 0.9821 <error: 0.0035400390625 0.00341796875 0.00341796875 0.00335693359375 0.9821 
32768 278.796264648438 59.5835266113281 3.0517578125e-05 9135596.0000 55.0205993652344 5.0671 55.0205993652344 55.0205993652344 46.414794921875 46.41796875 8.60263061523438 0.001678466796875 0.001708984375 0 0 0.8436 0.8436 0.9821 <error: 0.00177001953125 0.001708984375 0.001708984375 0.001678466796875 0.9821 
65536 298.232284545898 63.5330505371094 3.0517578125e-05 9772475.5000 59.0178375244141 5.0533 59.0178375244141 59.0178375244141 49.9169616699219 49.9185180664062 9.09931945800781 0.0008392333984375 0.0008544921875 0 0 0.8458 0.8458 0.9821 <error: 0.000885009765625 0.0008544921875 0.0008544921875 0.0008392333984375 0.9821 
131072 317.671813964844 67.5033798217773 3.814697265625e-05 8327576.0000 63.0080490112305 5.0418 63.0080490112305 63.0080490112305 53.4277877807617 53.4285659790039 9.57948303222656 0.00041961669921875 0.00042724609375 0 0 0.8480 0.8480 0.9821 <error: 0.0004425048828125 0.00042724609375 0.00042724609375 0.00041961669921875 0.9821 
262144 337.153121948242 71.4904403686523 4.1961669921875e-05 8034788.0000 67.006763458252 5.0316 67.006763458252 67.006763458252 56.9223785400391 56.9227638244629 10.0839996337891 0.000209808349609375 0.000213623046875 0 0 0.8495 0.8495 0.9821 <error: 0.00022125244140625 0.000213623046875 0.000213623046875 0.000209808349609375 0.9821 
524288 356.642242431641 75.4841709136963 4.57763671875e-05 7790968.6667 71.0050868988037 5.0228 71.0050868988037 71.0050868988037 60.4095077514648 60.409704208374 10.5953826904297 0.000104904174804688 0.0001068115234375 0 0 0.8508 0.8508 0.9821 <error: 0.000110626220703125 0.0001068115234375 0.0001068115234375 0.000104904174804688 0.9821 
1048576 376.12487411499 79.4787740707397 4.9591064453125e-05 7584529.1538 75.0019903182983 5.0149 75.0019903182983 75.0019903182983 63.9007968902588 63.9008922576904 11.1010980606079 5.24520874023438e-05 5.340576171875e-05 0 0 0.8520 0.8520 0.9821 <error: 5.53131103515625e-05 5.340576171875e-05 5.340576171875e-05 5.24520874023438e-05 0.9821 
2097152 395.63115978241 83.4785284996033 5.24520874023438e-05 7542715.2545 79.0037569999695 5.0078 79.0037569999695 79.0037569999695 67.3969187736511 67.3969645500183 11.6067924499512 2.62260437011719e-05 2.6702880859375e-05 0 0 0.8531 0.8531 0.9821 <error: 2.76565551757812e-05 2.6702880859375e-05 2.6702880859375e-05 2.62260437011719e-05 0.9821 
4194304 415.137232542038 87.4792141914368 5.60283660888672e-05 7409411.7234 83.0053999423981 5.0013 83.0053999423981 83.0053999423981 70.8869173526764 70.8869414329529 12.1184585094452 1.31130218505859e-05 1.33514404296875e-05 0 0 0.8540 0.8540 0.9821 <error: 1.38282775878906e-05 1.33514404296875e-05 1.33514404296875e-05 1.31130218505859e-05 0.9821 
