#set_size_in_keys sim_num_insn sim_num_refs sim_elapsed_time sim_inst_rate il1.accesses il1.hits il1.misses il1.replacements il1.writebacks il1.invalidations il1.miss_rate il1.repl_rate il1.wb_rate il1.inv_rate dl1.accesses dl1.hits dl1.misses dl1.replacements dl1.writebacks dl1.invalidations dl1.miss_rate dl1.repl_rate dl1.wb_rate dl1.inv_rate dl2.accesses dl2.hits dl2.misses dl2.replacements dl2.writebacks dl2.invalidations dl2.miss_rate dl2.repl_rate dl2.wb_rate dl2.inv_rate itlb.accesses itlb.hits itlb.misses itlb.replacements itlb.writebacks itlb.invalidations itlb.miss_rate itlb.repl_rate itlb.wb_rate itlb.inv_rate dtlb.accesses dtlb.hits dtlb.misses dtlb.replacements dtlb.writebacks dtlb.invalidations dtlb.miss_rate dtlb.repl_rate dtlb.wb_rate dtlb.inv_rate ld_text_base ld_text_size ld_data_base ld_data_size ld_stack_base ld_stack_size ld_prog_entry ld_environ_base ld_target_big_endian mem.page_count mem.page_mem mem.ptab_misses mem.ptab_accesses mem.ptab_miss_rate
4096 1.506103515625 0.8896484375 0.001708984375 881.2857 1.506103515625 1.436279296875 0.06982421875 0.00732421875 0 0 0.0464 0.0049 0.0000 0.0000 4.9091796875 4.676513671875 0.232666015625 0.170166015625 0.16748046875 0 0.0474 0.0347 0.0341 0.0000 0.469970703125 0.174560546875 0.29541015625 0 0 0 0.6286 0.0000 0.0000 0.0000 1.506103515625 1.50341796875 0.002685546875 0 0 0 0.0018 0.0000 0.0000 0.0000 4.9091796875 4.906494140625 0.002685546875 0 0 0 0.0005 0.0000 0.0000 0.0000 0x00400000 17.8359375 0x10000000 2.0126953125 0x7fffc000 4 0x00400140 0x7fff8000 0 0.007080078125 116k 0.007080078125 126.52197265625 0.0001 
8192 0.7535400390625 0.44482421875 0.0010986328125 685.8889 0.7535400390625 0.718505859375 0.0350341796875 0.0037841796875 0 0 0.0465 0.0050 0.0000 0.0000 4.45458984375 4.2757568359375 0.1788330078125 0.1475830078125 0.146240234375 0 0.0401 0.0331 0.0328 0.0000 0.360107421875 0.1497802734375 0.2103271484375 0 0 0 0.5841 0.0000 0.0000 0.0000 0.7535400390625 0.752197265625 0.0013427734375 0 0 0 0.0018 0.0000 0.0000 0.0000 4.45458984375 4.4527587890625 0.0018310546875 0 0 0 0.0004 0.0000 0.0000 0.0000 0x00400000 8.921875 0x10000000 1.00634765625 0x7fffc000 2 0x00400140 0x7fff8000 0 0.0040283203125 132k 0.0040283203125 67.286376953125 0.0001 
16384 0.37689208984375 0.222412109375 0.0009765625 385.9375 0.37689208984375 0.3587646484375 0.01812744140625 0.00250244140625 0 0 0.0481 0.0066 0.0000 0.0000 4.227294921875 4.07537841796875 0.15191650390625 0.13629150390625 0.1356201171875 0 0.0359 0.0322 0.0321 0.0000 0.3056640625 0.13739013671875 0.16827392578125 0 0 0 0.5505 0.0000 0.0000 0.0000 0.37689208984375 0.376220703125 0.00067138671875 0 0 0 0.0018 0.0000 0.0000 0.0000 4.227294921875 4.22589111328125 0.00140380859375 0 0 0 0.0003 0.0000 0.0000 0.0000 0x00400000 4.4619140625 0x10000000 0.503173828125 0x7fffc000 1 0x00400140 0x7fff8000 0 0.00250244140625 164k 0.00250244140625 37.6495361328125 0.0001 
32768 0.1884765625 0.1112060546875 0.00079345703125 237.5385 0.1884765625 0.1796875 0.0087890625 0.0009765625 0 0 0.0466 0.0052 0.0000 0.0000 4.1136474609375 3.97518920898438 0.138458251953125 0.130645751953125 0.13031005859375 0 0.0337 0.0318 0.0317 0.0000 0.277557373046875 0.131195068359375 0.1463623046875 0 0 0 0.5273 0.0000 0.0000 0.0000 0.1884765625 0.188140869140625 0.000335693359375 0 0 0 0.0018 0.0000 0.0000 0.0000 4.1136474609375 4.11245727539062 0.001190185546875 0 0 0 0.0003 0.0000 0.0000 0.0000 0x00400000 2.2314453125 0x10000000 0.2515869140625 0x7fffc000 0.5 0x00400140 0x7fff8000 0 0.001739501953125 228k 0.001739501953125 22.8278198242188 0.0001 
65536 0.09423828125 0.05560302734375 0.000732421875 128.6667 0.09423828125 0.08984375 0.00439453125 0.00048828125 0 0 0.0466 0.0052 0.0000 0.0000 4.05682373046875 3.92509460449219 0.131729125976562 0.127822875976562 0.127655029296875 0 0.0325 0.0315 0.0315 0.0000 0.263778686523438 0.128097534179688 0.13568115234375 0 0 0 0.5144 0.0000 0.0000 0.0000 0.09423828125 0.0940704345703125 0.0001678466796875 0 0 0 0.0018 0.0000 0.0000 0.0000 4.05682373046875 4.05574035644531 0.0010833740234375 0 0 0 0.0003 0.0000 0.0000 0.0000 0x00400000 1.11572265625 0x10000000 0.12579345703125 0x7fffc000 0.25 0x00400140 0x7fff8000 0 0.0013580322265625 356k 0.0013580322265625 15.4139099121094 0.0001 
131072 0.0471267700195312 0.027801513671875 0.00064849853515625 72.6706 0.0471267700195312 0.0449295043945312 0.002197265625 0.000244140625 0 0 0.0466 0.0052 0.0000 0.0000 4.02841186523438 3.90004730224609 0.128364562988281 0.126411437988281 0.126327514648438 0 0.0319 0.0314 0.0314 0.0000 0.256889343261719 0.126548767089844 0.130340576171875 0 0 0 0.5074 0.0000 0.0000 0.0000 0.0471267700195312 0.0470428466796875 8.392333984375e-05 0 0 0 0.0018 0.0000 0.0000 0.0000 4.02841186523438 4.02735137939453 0.00106048583984375 8.392333984375e-05 6.866455078125e-05 0 0.0003 0.0000 0.0000 0.0000 0x00400000 0.557861328125 0x10000000 0.062896728515625 0x7fffc000 0.125 0x00400140 0x7fff8000 0 0.00116729736328125 612k 0.00116729736328125 11.7069854736328 0.0001 
262144 0.0235633850097656 0.0139007568359375 0.00054168701171875 43.5000 0.0235633850097656 0.0224647521972656 0.0010986328125 0.0001220703125 0 0 0.0466 0.0052 0.0000 0.0000 4.01420593261719 3.88752365112305 0.126682281494141 0.125705718994141 0.125663757324219 0 0.0316 0.0313 0.0313 0.0000 0.253444671630859 0.125774383544922 0.127670288085938 0 0 0 0.5037 0.0000 0.0000 0.0000 0.0235633850097656 0.0235214233398438 4.1961669921875e-05 0 0 0 0.0018 0.0000 0.0000 0.0000 4.01420593261719 4.01318740844727 0.00101852416992188 0.000530242919921875 0.000522613525390625 0 0.0003 0.0001 0.0001 0.0000 0x00400000 0.2789306640625 0x10000000 0.0314483642578125 0x7fffc000 0.0625 0x00400140 0x7fff8000 0 0.00107192993164062 1124k 0.00107192993164062 9.85349273681641 0.0001 
524288 0.0117816925048828 0.00695037841796875 0.000356674194335938 33.0321 0.0117816925048828 0.0112323760986328 0.00054931640625 6.103515625e-05 0 0 0.0466 0.0052 0.0000 0.0000 4.00710296630859 3.88126182556152 0.12584114074707 0.12535285949707 0.125331878662109 0 0.0314 0.0313 0.0313 0.0000 0.25172233581543 0.125371932983398 0.126350402832031 0.00135040283203125 0.00122642517089844 0 0.5019 0.0054 0.0049 0.0000 0.0117816925048828 0.0117607116699219 2.09808349609375e-05 0 0 0 0.0018 0.0000 0.0000 0.0000 4.00710296630859 4.00610542297363 0.000997543334960938 0.000753402709960938 0.000749588012695312 0 0.0002 0.0002 0.0002 0.0000 0x00400000 0.13946533203125 0x10000000 0.0157241821289062 0x7fffc000 0.03125 0x00400140 0x7fff8000 0 0.00102424621582031 2148k 0.00102424621582031 8.9267463684082 0.0001 
1048576 0.00589084625244141 0.00347518920898438 0.000179290771484375 32.8564 0.00589084625244141 0.00561618804931641 0.000274658203125 3.0517578125e-05 0 0 0.0466 0.0052 0.0000 0.0000 4.0035514831543 3.87813091278076 0.125420570373535 0.125176429748535 0.125165939331055 0 0.0313 0.0313 0.0313 0.0000 0.250861167907715 0.125185966491699 0.125675201416016 0.0631752014160156 0.0631132125854492 0 0.5010 0.2518 0.2516 0.0000 0.00589084625244141 0.00588035583496094 1.04904174804688e-05 0 0 0 0.0018 0.0000 0.0000 0.0000 4.0035514831543 4.00256443023682 0.000987052917480469 0.000864982604980469 0.000863075256347656 0 0.0002 0.0002 0.0002 0.0000 0x00400000 0.069732666015625 0x10000000 0.00786209106445312 0x7fffc000 0.015625 0x00400140 0x7fff8000 0 0.00100040435791016 4196k 0.00100040435791016 8.4633731842041 0.0001 
2097152 0.0029454231262207 0.00173759460449219 0.000144004821777344 20.4536 0.0029454231262207 0.0028080940246582 0.0001373291015625 1.52587890625e-05 0 0 0.0466 0.0052 0.0000 0.0000 4.00177574157715 3.87656545639038 0.125210285186768 0.125088214874268 0.125082969665527 0 0.0313 0.0313 0.0313 0.0000 0.250430583953857 0.12509298324585 0.125337600708008 0.0940876007080078 0.0940566062927246 0 0.5005 0.3757 0.3756 0.0000 0.0029454231262207 0.00294017791748047 5.24520874023438e-06 0 0 0 0.0018 0.0000 0.0000 0.0000 4.00177574157715 4.00079393386841 0.000981807708740234 0.000920772552490234 0.000919818878173828 0 0.0002 0.0002 0.0002 0.0000 0x00400000 0.0348663330078125 0x10000000 0.00393104553222656 0x7fffc000 0.0078125 0x00400140 0x7fff8000 0 0.000988483428955078 8292k 0.000988483428955078 8.23168659210205 0.0001 
4194304 0.00147271156311035 0.000868797302246094 4.60147857666016e-05 32.0052 0.00147271156311035 0.0014040470123291 6.866455078125e-05 7.62939453125e-06 0 0 0.0466 0.0052 0.0000 0.0000 4.00088787078857 3.87578272819519 0.125105142593384 0.125044107437134 0.125041484832764 0 0.0313 0.0313 0.0313 0.0000 0.250215291976929 0.125046491622925 0.125168800354004 0.109543800354004 0.109528303146362 0 0.5002 0.4378 0.4377 0.0000 0.00147271156311035 0.00147008895874023 2.62260437011719e-06 0 0 0 0.0018 0.0000 0.0000 0.0000 4.00088787078857 3.9999086856842 0.000979185104370117 0.000948667526245117 0.000948190689086914 0 0.0002 0.0002 0.0002 0.0000 0x00400000 0.0174331665039062 0x10000000 0.00196552276611328 0x7fffc000 0.00390625 0x00400140 0x7fff8000 0 0.000982522964477539 16484k 0.000982522964477539 8.11584329605103 0.0001 
