#set_size_in_keys sim_num_insn sim_num_refs sim_elapsed_time sim_inst_rate sim_num_branches sim_IPB bpred_2lev.lookups bpred_2lev.updates bpred_2lev.addr_hits bpred_2lev.dir_hits bpred_2lev.misses bpred_2lev.jr_hits bpred_2lev.jr_seen bpred_2lev.jr_non_ras_hits.PP bpred_2lev.jr_non_ras_seen.PP bpred_2lev.bpred_addr_rate bpred_2lev.bpred_dir_rate bpred_2lev.bpred_jr_rate bpred_2lev.bpred_jr_non_ras_rate.PP bpred_2lev.retstack_pushes bpred_2lev.retstack_pops bpred_2lev.used_ras.PP bpred_2lev.ras_hits.PP bpred_2lev.ras_rate.PP
4096 234.58154296875 76.931884765625 0.000244140625 960846.0000 31.889892578125 7.3560 31.889892578125 31.889892578125 25.62744140625 25.66455078125 6.225341796875 2.091796875 2.09228515625 0 0.000244140625 0.8036 0.8048 0.9998 0.0000 2.092529296875 2.092041015625 2.092041015625 2.091796875 0.9999 
8192 247.104125976562 78.965087890625 0.0001220703125 2024277.0000 33.4442138671875 7.3885 33.4442138671875 33.4442138671875 26.7974853515625 26.81494140625 6.6292724609375 2.045654296875 2.0457763671875 0 0 0.8013 0.8018 0.9999 <error: 2.0460205078125 2.0457763671875 2.0457763671875 2.045654296875 0.9999 
16384 265.596435546875 85.4818725585938 6.103515625e-05 4351532.0000 35.40478515625 7.5017 35.40478515625 35.40478515625 28.334716796875 28.3436889648438 7.06109619140625 2.02294921875 2.0230712890625 0 6.103515625e-05 0.8003 0.8006 0.9999 0.0000 2.02313232421875 2.02301025390625 2.02301025390625 2.02294921875 1.0000 
32768 279.590545654297 88.2406005859375 0.0001220703125 2290405.7500 37.2008361816406 7.5157 37.2008361816406 37.2008361816406 29.656982421875 29.6613464355469 7.53948974609375 2.01141357421875 2.01144409179688 0 0 0.7972 0.7973 1.0000 <error: 2.01150512695312 2.01144409179688 2.01144409179688 2.01141357421875 1.0000 
65536 298.917663574219 95.1388854980469 0.0001373291015625 2176652.0000 39.29736328125 7.6066 39.29736328125 39.29736328125 31.2702941894531 31.2725372314453 8.02482604980469 2.0057373046875 2.00576782226562 0 1.52587890625e-05 0.7957 0.7958 1.0000 0.0000 2.00578308105469 2.00575256347656 2.00575256347656 2.0057373046875 1.0000 
131072 313.513633728027 98.1329193115234 0.0001373291015625 2282936.6111 41.1819686889648 7.6129 41.1819686889648 41.1819686889648 32.6631698608398 32.6642913818359 8.51767730712891 2.00285339355469 2.00286102294922 0 0 0.7931 0.7932 1.0000 <error: 2.00287628173828 2.00286102294922 2.00286102294922 2.00285339355469 1.0000 
262144 332.917064666748 105.092376708984 0.000148773193359375 2237749.0000 43.2957458496094 7.6894 43.2957458496094 43.2957458496094 34.2849388122559 34.2855224609375 9.01022338867188 2.00143432617188 2.00144195556641 0 3.814697265625e-06 0.7919 0.7919 1.0000 0.0000 2.00144577026367 2.00143814086914 2.00143814086914 2.00143432617188 1.0000 
524288 448.915943145752 135.689777374268 0.000202178955078125 2220389.0755 62.3484306335449 7.2001 62.3484306335449 62.3484306335449 51.0004482269287 51.0008544921875 11.3475761413574 3.00076866149902 3.00077056884766 0 1.9073486328125e-06 0.8180 0.8180 1.0000 0.0000 3.00077247619629 3.00076866149902 3.00076866149902 3.00076866149902 1.0000 
1048576 485.498907089233 146.078294754028 0.000217437744140625 2232817.9912 67.5831985473633 7.1837 67.5831985473633 67.5831985473633 55.7850542068481 55.7852659225464 11.7979326248169 3.00038433074951 3.00038528442383 0 9.5367431640625e-07 0.8254 0.8254 1.0000 0.0000 3.00038623809814 3.00038433074951 3.00038433074951 3.00038433074951 1.0000 
2097152 515.374047756195 155.085847377777 0.000173091888427734 2977459.2700 71.2378101348877 7.2346 71.2378101348877 71.2378101348877 58.4642453193665 58.4643530845642 12.7734570503235 3.00019216537476 3.00019264221191 0 4.76837158203125e-07 0.8207 0.8207 1.0000 0.0000 3.00019311904907 3.00019216537476 3.00019216537476 3.00019216537476 1.0000 
4194304 552.965142726898 167.222971916199 0.000123023986816406 4494775.0194 75.301522731781 7.3433 75.301522731781 75.301522731781 61.1091487407684 61.1092045307159 14.1923182010651 3.00009608268738 3.00009632110596 0 2.38418579101562e-07 0.8115 0.8115 1.0000 0.0000 3.00009655952454 3.00009608268738 3.00009608268738 3.00009608268738 1.0000 
