#set_size_in_keys sim_num_insn sim_num_refs sim_elapsed_time sim_inst_rate sim_num_branches sim_IPB bpred_2lev.lookups bpred_2lev.updates bpred_2lev.addr_hits bpred_2lev.dir_hits bpred_2lev.misses bpred_2lev.jr_hits bpred_2lev.jr_seen bpred_2lev.jr_non_ras_hits.PP bpred_2lev.jr_non_ras_seen.PP bpred_2lev.bpred_addr_rate bpred_2lev.bpred_dir_rate bpred_2lev.bpred_jr_rate bpred_2lev.bpred_jr_non_ras_rate.PP bpred_2lev.retstack_pushes bpred_2lev.retstack_pops bpred_2lev.used_ras.PP bpred_2lev.ras_hits.PP bpred_2lev.ras_rate.PP
4096 234.58154296875 76.931884765625 0.000244140625 960846.0000 31.889892578125 7.3560 31.889892578125 31.889892578125 25.501953125 25.538818359375 6.35107421875 2.091796875 2.09228515625 0 0.000244140625 0.7997 0.8008 0.9998 0.0000 2.092529296875 2.092041015625 2.092041015625 2.091796875 0.9999 
8192 247.104125976562 78.965087890625 0.0001220703125 2024277.0000 33.4442138671875 7.3885 33.4442138671875 33.4442138671875 26.6358642578125 26.6536865234375 6.79052734375 2.045654296875 2.0457763671875 0 0 0.7964 0.7970 0.9999 <error: 2.0460205078125 2.0457763671875 2.0457763671875 2.045654296875 0.9999 
16384 265.596435546875 85.4818725585938 0.0001220703125 2175766.0000 35.40478515625 7.5017 35.40478515625 35.40478515625 28.1542358398438 28.1631469726562 7.24163818359375 2.02294921875 2.0230712890625 0 6.103515625e-05 0.7952 0.7955 0.9999 0.0000 2.02313232421875 2.02301025390625 2.02301025390625 2.02294921875 1.0000 
32768 279.590545654297 88.2406005859375 0.0001220703125 2290405.7500 37.2008361816406 7.5157 37.2008361816406 37.2008361816406 29.4672546386719 29.4717102050781 7.7291259765625 2.01141357421875 2.01144409179688 0 0 0.7921 0.7922 1.0000 <error: 2.01150512695312 2.01144409179688 2.01144409179688 2.01141357421875 1.0000 
65536 298.917663574219 95.1388854980469 0.0001220703125 2448733.5000 39.29736328125 7.6066 39.29736328125 39.29736328125 31.0714569091797 31.0736999511719 8.22366333007812 2.0057373046875 2.00576782226562 0 1.52587890625e-05 0.7907 0.7907 1.0000 0.0000 2.00578308105469 2.00575256347656 2.00575256347656 2.0057373046875 1.0000 
131072 313.513633728027 98.1329193115234 0.0001373291015625 2282936.6111 41.1819686889648 7.6129 41.1819686889648 41.1819686889648 32.4526214599609 32.4537200927734 8.72824859619141 2.00285339355469 2.00286102294922 0 0 0.7880 0.7881 1.0000 <error: 2.00287628173828 2.00286102294922 2.00286102294922 2.00285339355469 1.0000 
262144 332.917064666748 105.092376708984 0.00014495849609375 2296637.1316 43.2957458496094 7.6894 43.2957458496094 43.2957458496094 34.0667152404785 34.0673027038574 9.22844314575195 2.00143432617188 2.00144195556641 0 3.814697265625e-06 0.7868 0.7869 1.0000 0.0000 2.00144577026367 2.00143814086914 2.00143814086914 2.00143432617188 1.0000 
524288 448.915943145752 135.689777374268 0.000200271606445312 2241535.6381 62.3484306335449 7.2001 62.3484306335449 62.3484306335449 50.5914630889893 50.5918979644775 11.7565326690674 3.00076866149902 3.00077056884766 0 1.9073486328125e-06 0.8114 0.8114 1.0000 0.0000 3.00077247619629 3.00076866149902 3.00076866149902 3.00076866149902 1.0000 
1048576 485.498907089233 146.078294754028 0.000218391418457031 2223067.6943 67.5831985473633 7.1837 67.5831985473633 67.5831985473633 55.3595590591431 55.3597745895386 12.2234239578247 3.00038433074951 3.00038528442383 0 9.5367431640625e-07 0.8191 0.8191 1.0000 0.0000 3.00038623809814 3.00038433074951 3.00038433074951 3.00038433074951 1.0000 
2097152 515.374047756195 155.085847377777 0.000173568725585938 2969279.4368 71.2378101348877 7.2346 71.2378101348877 71.2378101348877 57.8936123847961 57.8937244415283 13.3440856933594 3.00019216537476 3.00019264221191 0 4.76837158203125e-07 0.8127 0.8127 1.0000 0.0000 3.00019311904907 3.00019216537476 3.00019216537476 3.00019216537476 1.0000 
4194304 552.965142726898 167.222971916199 0.000123500823974609 4477420.6757 75.301522731781 7.3433 75.301522731781 75.301522731781 60.427859544754 60.4279155731201 14.8736071586609 3.00009608268738 3.00009632110596 0 2.38418579101562e-07 0.8025 0.8025 1.0000 0.0000 3.00009655952454 3.00009608268738 3.00009608268738 3.00009608268738 1.0000 
