#set_size_in_keys sim_num_insn sim_num_refs sim_elapsed_time sim_inst_rate il1.accesses il1.hits il1.misses il1.replacements il1.writebacks il1.invalidations il1.miss_rate il1.repl_rate il1.wb_rate il1.inv_rate dl1.accesses dl1.hits dl1.misses dl1.replacements dl1.writebacks dl1.invalidations dl1.miss_rate dl1.repl_rate dl1.wb_rate dl1.inv_rate dl2.accesses dl2.hits dl2.misses dl2.replacements dl2.writebacks dl2.invalidations dl2.miss_rate dl2.repl_rate dl2.wb_rate dl2.inv_rate itlb.accesses itlb.hits itlb.misses itlb.replacements itlb.writebacks itlb.invalidations itlb.miss_rate itlb.repl_rate itlb.wb_rate itlb.inv_rate dtlb.accesses dtlb.hits dtlb.misses dtlb.replacements dtlb.writebacks dtlb.invalidations dtlb.miss_rate dtlb.repl_rate dtlb.wb_rate dtlb.inv_rate ld_text_base ld_text_size ld_data_base ld_data_size ld_stack_base ld_stack_size ld_prog_entry ld_environ_base ld_target_big_endian mem.page_count mem.page_mem mem.ptab_misses mem.ptab_accesses mem.ptab_miss_rate
4096 234.58154296875 76.931884765625 0.000244140625 960846.0000 234.58154296875 234.453125 0.12841796875 0.071044921875 0 0 0.0005 0.0003 0.0000 0.0000 76.948974609375 72.428466796875 4.5205078125 4.4580078125 2.30810546875 0 0.0587 0.0579 0.0300 0.0000 6.95703125 6.490478515625 0.466552734375 0.0419921875 0.028564453125 0 0.0671 0.0060 0.0041 0.0000 234.58154296875 234.579345703125 0.002197265625 0 0 0 0.0000 0.0000 0.0000 0.0000 76.948974609375 76.9453125 0.003662109375 0 0 0 0.0000 0.0000 0.0000 0.0000 0x00400000 9.28515625 0x10000000 1 0x7fffc000 4 0x00400140 0x7fff8000 0 0.006103515625 100k 0.006103515625 1149.2080078125 0.0000 
8192 247.104125976562 78.965087890625 0.000244140625 1012138.5000 247.104125976562 247.041870117188 0.062255859375 0.0340576171875 0 0 0.0003 0.0001 0.0000 0.0000 78.9736328125 74.4517822265625 4.5218505859375 4.4906005859375 2.296875 0 0.0573 0.0569 0.0291 0.0000 6.8809814453125 6.5250244140625 0.35595703125 0.0211181640625 0.0142822265625 0 0.0517 0.0031 0.0021 0.0000 247.104125976562 247.10302734375 0.0010986328125 0 0 0 0.0000 0.0000 0.0000 0.0000 78.9736328125 78.9708251953125 0.0028076171875 0 0 0 0.0000 0.0000 0.0000 0.0000 0x00400000 4.646484375 0x10000000 0.5 0x7fffc000 2 0x00400140 0x7fff8000 0 0.0040283203125 132k 0.0040283203125 1174.87915039062 0.0000 
16384 265.596435546875 85.4818725585938 0.00030517578125 870306.4000 265.596435546875 265.563232421875 0.033203125 0.0186767578125 0 0 0.0001 0.0001 0.0000 0.0000 85.4861450195312 80.4525146484375 5.03363037109375 5.01800537109375 2.5501708984375 0 0.0589 0.0587 0.0298 0.0000 7.61700439453125 7.31201171875 0.30499267578125 0.01092529296875 0.00738525390625 0 0.0400 0.0014 0.0010 0.0000 265.596435546875 265.595886230469 0.00054931640625 0 0 0 0.0000 0.0000 0.0000 0.0000 85.4861450195312 85.4837646484375 0.00238037109375 0 0 0 0.0000 0.0000 0.0000 0.0000 0x00400000 2.32421875 0x10000000 0.25 0x7fffc000 1 0x00400140 0x7fff8000 0 0.00299072265625 196k 0.00299072265625 1247.62158203125 0.0000 
32768 279.590545654297 88.2406005859375 0.000274658203125 1017958.1111 279.590545654297 279.574798583984 0.0157470703125 0.008636474609375 0 0 0.0001 0.0000 0.0000 0.0000 88.2427368164062 83.1972961425781 5.04544067382812 5.03762817382812 2.5438232421875 0 0.0572 0.0571 0.0288 0.0000 7.60501098632812 7.32830810546875 0.276702880859375 0.00543212890625 0.003631591796875 0 0.0364 0.0007 0.0005 0.0000 279.590545654297 279.590270996094 0.000274658203125 0 0 0 0.0000 0.0000 0.0000 0.0000 88.2427368164062 88.2405700683594 0.002166748046875 0 0 0 0.0000 0.0000 0.0000 0.0000 0x00400000 1.1630859375 0x10000000 0.125 0x7fffc000 0.5 0x00400140 0x7fff8000 0 0.002471923828125 324k 0.002471923828125 1301.98529052734 0.0000 
65536 298.917663574219 95.1388854980469 0.0003204345703125 932850.8571 298.917663574219 298.909362792969 0.00830078125 0.0046844482421875 0 0 0.0000 0.0000 0.0000 0.0000 95.1399536132812 89.5589141845703 5.58103942871094 5.57713317871094 2.79908752441406 0 0.0587 0.0586 0.0294 0.0000 8.388427734375 8.12464904785156 0.263778686523438 0.0027618408203125 0.001861572265625 0 0.0314 0.0003 0.0002 0.0000 298.917663574219 298.917526245117 0.0001373291015625 0 0 0 0.0000 0.0000 0.0000 0.0000 95.1399536132812 95.1358337402344 0.004119873046875 0.002166748046875 0.0012969970703125 0 0.0000 0.0000 0.0000 0.0000 0x00400000 0.58154296875 0x10000000 0.0625 0x7fffc000 0.25 0x00400140 0x7fff8000 0 0.0022125244140625 580k 0.0022125244140625 1389.51937866211 0.0000 
131072 313.513633728027 98.1329193115234 0.00032806396484375 955647.8837 313.513633728027 313.50968170166 0.0039520263671875 0.00217437744140625 0 0 0.0000 0.0000 0.0000 0.0000 98.1334533691406 92.5225143432617 5.61093902587891 5.60898590087891 2.80623626708984 0 0.0572 0.0572 0.0286 0.0000 8.42112731933594 8.16444396972656 0.256683349609375 0.00136566162109375 0.00091552734375 0 0.0305 0.0002 0.0001 0.0000 313.513633728027 313.513565063477 6.866455078125e-05 0 0 0 0.0000 0.0000 0.0000 0.0000 98.1334533691406 98.1011505126953 0.0323028564453125 0.0313262939453125 0.0164031982421875 0 0.0003 0.0003 0.0002 0.0000 0x00400000 0.290771484375 0x10000000 0.03125 0x7fffc000 0.125 0x00400140 0x7fff8000 0 0.00208282470703125 1092k 0.00208282470703125 1452.10585021973 0.0000 
262144 332.917064666748 105.092376708984 0.000354766845703125 938410.8710 332.917064666748 332.914989471436 0.0020751953125 0.00117111206054688 0 0 0.0000 0.0000 0.0000 0.0000 105.092643737793 98.9421882629395 6.15045547485352 6.14947891235352 3.06497573852539 0 0.0585 0.0585 0.0292 0.0000 9.21750640869141 5.10636138916016 4.11114501953125 3.97806930541992 2.11201095581055 0 0.4460 0.4316 0.2291 0.0000 332.917064666748 332.917030334473 3.4332275390625e-05 0 0 0 0.0000 0.0000 0.0000 0.0000 105.092643737793 105.0553855896 0.0372581481933594 0.0367698669433594 0.019378662109375 0 0.0004 0.0003 0.0002 0.0000 0x00400000 0.1453857421875 0x10000000 0.015625 0x7fffc000 0.0625 0x00400140 0x7fff8000 0 0.00201797485351562 2116k 0.00201797485351562 1542.74575042725 0.0000 
524288 448.915943145752 135.689777374268 0.00048065185546875 933973.1825 448.915943145752 440.539552688599 8.37639045715332 8.37590217590332 0 0 0.0187 0.0187 0.0000 0.0000 135.689910888672 129.215524673462 6.47438621520996 6.47389793395996 3.35556793212891 0 0.0477 0.0477 0.0247 0.0000 18.2063446044922 14.1494846343994 4.05685997009277 3.93185997009277 2.21224021911621 0 0.2228 0.2160 0.1215 0.0000 448.915943145752 448.915924072266 1.9073486328125e-05 0 0 0 0.0000 0.0000 0.0000 0.0000 135.689910888672 135.652660369873 0.0372505187988281 0.0370063781738281 0.0195140838623047 0 0.0003 0.0003 0.0001 0.0000 0x00400000 0.07269287109375 0x10000000 0.0078125 0x7fffc000 0.03125 0x00400140 0x7fff8000 0 0.00199699401855469 4188k 0.00599479675292969 2067.48969650269 0.0000 
1048576 485.498907089233 146.078294754028 0.000512123107910156 948012.1080 485.498907089233 476.998101234436 8.50080585479736 8.50056171417236 0 0 0.0175 0.0175 0.0000 0.0000 146.07836151123 139.598603248596 6.47975826263428 6.47951412200928 3.36103916168213 0 0.0444 0.0444 0.0230 0.0000 18.3416032791138 14.0812788009644 4.26032447814941 4.19782447814941 2.33071804046631 0 0.2323 0.2289 0.1271 0.0000 485.498907089233 485.49889755249 9.5367431640625e-06 0 0 0 0.0000 0.0000 0.0000 0.0000 146.07836151123 146.041041374207 0.0373201370239258 0.0371980667114258 0.0195684432983398 0 0.0003 0.0003 0.0001 0.0000 0x00400000 0.036346435546875 0x10000000 0.00390625 0x7fffc000 0.015625 0x00400140 0x7fff8000 0 0.00197505950927734 8284k 0.0973081588745117 2234.37540245056 0.0000 
2097152 515.374047756195 155.085847377777 0.000546932220458984 942299.6643 515.374047756195 506.87363910675 8.50040864944458 8.50028657913208 0 0 0.0165 0.0165 0.0000 0.0000 155.085880756378 148.598339080811 6.48754167556763 6.48741960525513 3.3687424659729 0 0.0418 0.0418 0.0217 0.0000 18.3566927909851 14.0887589454651 4.26793384552002 4.23668384552002 2.34946966171265 0 0.2325 0.2308 0.1280 0.0000 515.374047756195 515.374042987823 4.76837158203125e-06 0 0 0 0.0000 0.0000 0.0000 0.0000 155.085880756378 155.040800571442 0.0450801849365234 0.0450191497802734 0.0195975303649902 0 0.0003 0.0003 0.0001 0.0000 0x00400000 0.0181732177734375 0x10000000 0.001953125 0x7fffc000 0.0078125 0x00400140 0x7fff8000 0 0.00196695327758789 16500k 0.0496339797973633 2371.77947807312 0.0000 
4194304 552.965142726898 167.222971916199 0.000438213348388672 1261862.8455 552.965142726898 544.464936494827 8.50020623207092 8.50014519691467 0 0 0.0154 0.0154 0.0000 0.0000 167.222988605499 160.726717710495 6.49627089500427 6.49620985984802 3.37890982627869 0 0.0388 0.0388 0.0202 0.0000 18.3753869533539 14.1053013801575 4.27008557319641 4.25446057319641 2.36199498176575 0 0.2324 0.2315 0.1285 0.0000 552.965142726898 552.965140342712 2.38418579101562e-06 0 0 0 0.0000 0.0000 0.0000 0.0000 167.222988605499 167.095557451248 0.127431154251099 0.127400636672974 0.0196044445037842 0 0.0008 0.0008 0.0001 0.0000 0x00400000 0.00908660888671875 0x10000000 0.0009765625 0x7fffc000 0.00390625 0x00400140 0x7fff8000 0 0.00196290016174316 32932k 0.0257964134216309 2546.36231088638 0.0000 
