#set_size_in_keys sim_num_insn sim_num_refs sim_elapsed_time sim_inst_rate sim_num_branches sim_IPB bpred_2lev.lookups bpred_2lev.updates bpred_2lev.addr_hits bpred_2lev.dir_hits bpred_2lev.misses bpred_2lev.jr_hits bpred_2lev.jr_seen bpred_2lev.jr_non_ras_hits.PP bpred_2lev.jr_non_ras_seen.PP bpred_2lev.bpred_addr_rate bpred_2lev.bpred_dir_rate bpred_2lev.bpred_jr_rate bpred_2lev.bpred_jr_non_ras_rate.PP bpred_2lev.retstack_pushes bpred_2lev.retstack_pops bpred_2lev.used_ras.PP bpred_2lev.ras_hits.PP bpred_2lev.ras_rate.PP
4096 139.2158203125 58.05224609375 0.000244140625 570228.0000 10.841796875 12.8407 10.841796875 10.841796875 10.69482421875 10.723876953125 0.117919921875 2.08935546875 2.08935546875 0 0 0.9864 0.9891 1.0000 <error: 2.08984375 2.08935546875 2.08935546875 2.08935546875 1.0000 
8192 136.423583984375 56.595947265625 0.0001220703125 1117582.0000 10.48828125 13.0072 10.48828125 10.48828125 10.380615234375 10.3955078125 0.0927734375 2.045654296875 2.0457763671875 0 0 0.9897 0.9912 0.9999 <error: 2.0460205078125 2.0457763671875 2.0457763671875 2.045654296875 0.9999 
16384 135.01025390625 55.8624267578125 6.103515625e-05 2212008.0000 10.306640625 13.0993 10.306640625 10.306640625 10.2210693359375 10.22802734375 0.07861328125 2.0228271484375 2.02288818359375 0 0 0.9917 0.9924 1.0000 <error: 2.02301025390625 2.02288818359375 2.02288818359375 2.0228271484375 1.0000 
32768 134.303649902344 55.495849609375 3.0517578125e-05 4400862.0000 10.2158203125 13.1466 10.2158203125 10.2158203125 10.1404113769531 10.1438903808594 0.071929931640625 2.01141357421875 2.01144409179688 0 0 0.9926 0.9930 1.0000 <error: 2.01150512695312 2.01144409179688 2.01144409179688 2.01141357421875 1.0000 
65536 133.950210571289 55.3124389648438 1.52587890625e-05 8778561.0000 10.17041015625 13.1706 10.17041015625 10.17041015625 10.1004791259766 10.1022033691406 0.068206787109375 2.00570678710938 2.00572204589844 0 0 0.9931 0.9933 1.0000 <error: 2.00575256347656 2.00572204589844 2.00572204589844 2.00570678710938 1.0000 
131072 133.773498535156 55.2207336425781 3.0517578125e-05 4383490.0000 10.147705078125 13.1826 10.147705078125 10.147705078125 10.0804595947266 10.0813293457031 0.066375732421875 2.00285339355469 2.00286102294922 0 0 0.9934 0.9935 1.0000 <error: 2.00287628173828 2.00286102294922 2.00286102294922 2.00285339355469 1.0000 
262144 133.685134887695 55.1748809814453 3.0517578125e-05 4380594.5000 10.1363525390625 13.1887 10.1363525390625 10.1363525390625 10.0704727172852 10.0709075927734 0.0654449462890625 2.00142669677734 2.00143051147461 0 0 0.9935 0.9935 1.0000 <error: 2.00143814086914 2.00143051147461 2.00143051147461 2.00142669677734 1.0000 
524288 133.640953063965 55.1519546508789 2.86102294921875e-05 4671089.8667 10.1306762695312 13.1917 10.1306762695312 10.1306762695312 10.0654792785645 10.0656967163086 0.0649795532226562 2.00071334838867 2.0007152557373 0 0 0.9936 0.9936 1.0000 <error: 2.00071907043457 2.0007152557373 2.0007152557373 2.00071334838867 1.0000 
1048576 133.630763053894 55.1493282318115 2.86102294921875e-05 4670733.7000 10.1285943984985 13.1934 10.1285943984985 10.1285943984985 10.0637016296387 10.0638303756714 0.0647640228271484 2.00035953521729 2.0003604888916 0 9.5367431640625e-07 0.9936 0.9936 1.0000 0.0000 2.00036144256592 2.00035953521729 2.00035953521729 2.00035953521729 1.0000 
2097152 133.618166923523 55.1421098709106 2.90870666503906e-05 4593731.2459 10.1271648406982 13.1940 10.1271648406982 10.1271648406982 10.062460899353 10.0625252723694 0.0646395683288574 2.00017976760864 2.0001802444458 0 4.76837158203125e-07 0.9936 0.9936 1.0000 0.0000 2.00018072128296 2.00017976760864 2.00017976760864 2.00017976760864 1.0000 
4194304 133.611866950989 55.1385006904602 2.86102294921875e-05 4670073.2333 10.1264493465424 13.1943 10.1264493465424 10.1264493465424 10.0618393421173 10.0618712902069 0.0645780563354492 2.00008988380432 2.0000901222229 0 2.38418579101562e-07 0.9936 0.9936 1.0000 0.0000 2.00009036064148 2.00008988380432 2.00008988380432 2.00008988380432 1.0000 
