#set_size_in_keys sim_num_insn sim_num_refs sim_elapsed_time sim_inst_rate il1.accesses il1.hits il1.misses il1.replacements il1.writebacks il1.invalidations il1.miss_rate il1.repl_rate il1.wb_rate il1.inv_rate dl1.accesses dl1.hits dl1.misses dl1.replacements dl1.writebacks dl1.invalidations dl1.miss_rate dl1.repl_rate dl1.wb_rate dl1.inv_rate dl2.accesses dl2.hits dl2.misses dl2.replacements dl2.writebacks dl2.invalidations dl2.miss_rate dl2.repl_rate dl2.wb_rate dl2.inv_rate itlb.accesses itlb.hits itlb.misses itlb.replacements itlb.writebacks itlb.invalidations itlb.miss_rate itlb.repl_rate itlb.wb_rate itlb.inv_rate dtlb.accesses dtlb.hits dtlb.misses dtlb.replacements dtlb.writebacks dtlb.invalidations dtlb.miss_rate dtlb.repl_rate dtlb.wb_rate dtlb.inv_rate ld_text_base ld_text_size ld_data_base ld_data_size ld_stack_base ld_stack_size ld_prog_entry ld_environ_base ld_target_big_endian mem.page_count mem.page_mem mem.ptab_misses mem.ptab_accesses mem.ptab_miss_rate
4096 139.2158203125 58.05224609375 0.000244140625 570228.0000 139.2158203125 139.108642578125 0.107177734375 0.0537109375 0 0 0.0008 0.0004 0.0000 0.0000 58.0693359375 53.454345703125 4.614990234375 4.552490234375 3.08935546875 0 0.0795 0.0784 0.0532 0.0000 7.8115234375 7.34912109375 0.46240234375 0.10107421875 0.056640625 0 0.0592 0.0129 0.0073 0.0000 139.2158203125 139.213623046875 0.002197265625 0 0 0 0.0000 0.0000 0.0000 0.0000 58.0693359375 58.06591796875 0.00341796875 0 0 0 0.0001 0.0000 0.0000 0.0000 0x00400000 8.07421875 0x10000000 1 0x7fffc000 4 0x00400140 0x7fff8000 0 0.005615234375 92k 0.005615234375 722.72021484375 0.0000 
8192 136.423583984375 56.595947265625 0.0001220703125 1117582.0000 136.423583984375 136.36767578125 0.055908203125 0.031494140625 0 0 0.0004 0.0002 0.0000 0.0000 56.6044921875 51.862548828125 4.741943359375 4.710693359375 3.1864013671875 0 0.0838 0.0832 0.0563 0.0000 7.9842529296875 7.6268310546875 0.357421875 0.0523681640625 0.0301513671875 0 0.0448 0.0066 0.0038 0.0000 136.423583984375 136.422485351562 0.0010986328125 0 0 0 0.0000 0.0000 0.0000 0.0000 56.6044921875 56.601806640625 0.002685546875 0 0 0 0.0000 0.0000 0.0000 0.0000 0x00400000 4.041015625 0x10000000 0.5 0x7fffc000 2 0x00400140 0x7fff8000 0 0.0037841796875 124k 0.0037841796875 683.785888671875 0.0000 
16384 135.01025390625 55.8624267578125 0.0001220703125 1106004.0000 135.01025390625 134.981384277344 0.02886962890625 0.0164794921875 0 0 0.0002 0.0001 0.0000 0.0000 55.86669921875 51.0086059570312 4.85809326171875 4.84246826171875 3.30120849609375 0 0.0870 0.0867 0.0591 0.0000 8.18817138671875 7.88360595703125 0.3045654296875 0.02703857421875 0.0155029296875 0 0.0372 0.0033 0.0019 0.0000 135.01025390625 135.009704589844 0.00054931640625 0 0 0 0.0000 0.0000 0.0000 0.0000 55.86669921875 55.8643798828125 0.0023193359375 0 0 0 0.0000 0.0000 0.0000 0.0000 0x00400000 2.021484375 0x10000000 0.25 0x7fffc000 1 0x00400140 0x7fff8000 0 0.00286865234375 188k 0.00286865234375 664.221557617188 0.0000 
32768 134.303649902344 55.495849609375 9.1552734375e-05 1466954.0000 134.303649902344 134.289184570312 0.01446533203125 0.008209228515625 0 0 0.0001 0.0001 0.0000 0.0000 55.4979858398438 50.5903015136719 4.90768432617188 4.89987182617188 3.35800170898438 0 0.0884 0.0883 0.0605 0.0000 8.2801513671875 8.00283813476562 0.277313232421875 0.0135498046875 0.007781982421875 0 0.0335 0.0016 0.0009 0.0000 134.303649902344 134.303375244141 0.000274658203125 0 0 0 0.0000 0.0000 0.0000 0.0000 55.4979858398438 55.495849609375 0.00213623046875 0 0 0 0.0000 0.0000 0.0000 0.0000 0x00400000 1.01171875 0x10000000 0.125 0x7fffc000 0.5 0x00400140 0x7fff8000 0 0.002410888671875 316k 0.002410888671875 654.440002441406 0.0000 
65536 133.950210571289 55.3124389648438 7.62939453125e-05 1755712.2000 133.950210571289 133.942977905273 0.007232666015625 0.0041046142578125 0 0 0.0001 0.0000 0.0000 0.0000 55.3135070800781 50.2938385009766 5.01966857910156 5.01576232910156 3.47186279296875 0 0.0907 0.0907 0.0628 0.0000 8.49876403808594 8.235107421875 0.263656616210938 0.00677490234375 0.0038909912109375 0 0.0310 0.0008 0.0005 0.0000 133.950210571289 133.950073242188 0.0001373291015625 0 0 0 0.0000 0.0000 0.0000 0.0000 55.3135070800781 55.3105621337891 0.0029449462890625 0.0009918212890625 0.0006103515625 0 0.0001 0.0000 0.0000 0.0000 0x00400000 0.505859375 0x10000000 0.0625 0x7fffc000 0.25 0x00400140 0x7fff8000 0 0.0021820068359375 572k 0.0021820068359375 649.542572021484 0.0000 
131072 133.773498535156 55.2207336425781 8.392333984375e-05 1593996.3636 133.773498535156 133.769882202148 0.0036163330078125 0.00205230712890625 0 0 0.0000 0.0000 0.0000 0.0000 55.2212677001953 50.0485763549805 5.17269134521484 5.17073822021484 3.62564086914062 0 0.0937 0.0936 0.0657 0.0000 8.80194854736328 8.54511260986328 0.2568359375 0.00339508056640625 0.00194549560546875 0 0.0292 0.0004 0.0002 0.0000 133.773498535156 133.773429870605 6.866455078125e-05 0 0 0 0.0000 0.0000 0.0000 0.0000 55.2212677001953 55.1347351074219 0.0865325927734375 0.0855560302734375 0.07684326171875 0 0.0016 0.0015 0.0014 0.0000 0x00400000 0.2529296875 0x10000000 0.03125 0x7fffc000 0.125 0x00400140 0x7fff8000 0 0.00206756591796875 1084k 0.00206756591796875 647.093887329102 0.0000 
262144 133.685134887695 55.1748809814453 8.392333984375e-05 1592943.4545 133.685134887695 133.683326721191 0.00180816650390625 0.00102615356445312 0 0 0.0000 0.0000 0.0000 0.0000 55.1751480102539 49.6890869140625 5.48606109619141 5.48508453369141 3.94047164916992 0 0.0994 0.0994 0.0714 0.0000 9.42834091186523 9.17492294311523 0.25341796875 0.00169754028320312 0.000972747802734375 0 0.0269 0.0002 0.0001 0.0000 133.685134887695 133.68510055542 3.4332275390625e-05 0 0 0 0.0000 0.0000 0.0000 0.0000 55.1751480102539 53.266185760498 1.90896224975586 1.90847396850586 1.89724349975586 0 0.0346 0.0346 0.0344 0.0000 0x00400000 0.12646484375 0x10000000 0.015625 0x7fffc000 0.0625 0x00400140 0x7fff8000 0 0.00201034545898438 2108k 0.00201034545898438 645.869514465332 0.0000 
524288 133.640953063965 55.1519546508789 8.58306884765625e-05 1557029.9556 133.640953063965 133.640048980713 0.000904083251953125 0.000513076782226562 0 0 0.0000 0.0000 0.0000 0.0000 55.1520881652832 49.6543312072754 5.49775695800781 5.49726867675781 3.9528980255127 0 0.0997 0.0997 0.0717 0.0000 9.45155906677246 9.15516090393066 0.296398162841797 0.0485343933105469 0.0303325653076172 0 0.0314 0.0051 0.0032 0.0000 133.640953063965 133.640935897827 1.71661376953125e-05 0 0 0 0.0000 0.0000 0.0000 0.0000 55.1520881652832 52.6186408996582 2.533447265625 2.533203125 2.52169609069824 0 0.0459 0.0459 0.0457 0.0000 0x00400000 0.063232421875 0x10000000 0.0078125 0x7fffc000 0.03125 0x00400140 0x7fff8000 0 0.00198173522949219 4156k 0.00198173522949219 645.257328033447 0.0000 
1048576 133.630763053894 55.1493282318115 8.48770141601562e-05 1574404.6180 133.630763053894 133.630266189575 0.000496864318847656 0.000260353088378906 0 0 0.0000 0.0000 0.0000 0.0000 55.1493949890137 49.8313674926758 5.31802749633789 5.31778335571289 3.77337265014648 0 0.0964 0.0964 0.0684 0.0000 9.09189701080322 7.45001220703125 1.64188480377197 1.51688480377197 1.0061616897583 0 0.1806 0.1668 0.1107 0.0000 133.630763053894 133.630754470825 8.58306884765625e-06 0 0 0 0.0000 0.0000 0.0000 0.0000 55.1493949890137 52.0280475616455 3.12134742736816 3.12122535705566 3.10956859588623 0 0.0566 0.0566 0.0564 0.0000 0x00400000 0.0316162109375 0x10000000 0.00390625 0x7fffc000 0.015625 0x00400140 0x7fff8000 0 0.00197315216064453 8276k 0.019561767578125 645.016511917114 0.0000 
2097152 133.618166923523 55.1421098709106 8.48770141601562e-05 1574256.2135 133.618166923523 133.617918491364 0.000248432159423828 0.000130176544189453 0 0 0.0000 0.0000 0.0000 0.0000 55.1421432495117 50.1001219749451 5.04202127456665 5.04189920425415 3.49701547622681 0 0.0914 0.0914 0.0634 0.0000 8.53928518295288 5.92577934265137 2.61350584030151 2.55100584030151 1.07487106323242 0 0.3061 0.2987 0.1259 0.0000 133.618166923523 133.618162631989 4.29153442382812e-06 0 0 0 0.0000 0.0000 0.0000 0.0000 55.1421432495117 51.7090244293213 3.43311882019043 3.43305778503418 3.42136430740356 0 0.0623 0.0623 0.0620 0.0000 0x00400000 0.01580810546875 0x10000000 0.001953125 0x7fffc000 0.0078125 0x00400140 0x7fff8000 0 0.00196599960327148 16492k 0.00978183746337891 644.854289054871 0.0000 
4194304 133.611866950989 55.1385006904602 8.58306884765625e-05 1556691.0778 133.611866950989 133.611742734909 0.000124216079711914 6.50882720947266e-05 0 0 0.0000 0.0000 0.0000 0.0000 55.1385173797607 50.2950191497803 4.84349822998047 4.84343719482422 3.29868388175964 0 0.0878 0.0878 0.0598 0.0000 8.14230632781982 5.50217914581299 2.64012718200684 2.60887718200684 1.11337614059448 0 0.3242 0.3204 0.1367 0.0000 133.611866950989 133.611864805222 2.14576721191406e-06 0 0 0 0.0000 0.0000 0.0000 0.0000 55.1385173797607 51.5076537132263 3.63086366653442 3.6308331489563 3.61912703514099 0 0.0658 0.0658 0.0656 0.0000 0x00400000 0.007904052734375 0x10000000 0.0009765625 0x7fffc000 0.00390625 0x00400140 0x7fff8000 0 0.00196242332458496 32924k 0.00587034225463867 644.773169994354 0.0000 
