#set_size_in_keys sim_num_insn sim_num_refs sim_elapsed_time sim_inst_rate sim_num_branches sim_IPB bpred_2lev.lookups bpred_2lev.updates bpred_2lev.addr_hits bpred_2lev.dir_hits bpred_2lev.misses bpred_2lev.jr_hits bpred_2lev.jr_seen bpred_2lev.jr_non_ras_hits.PP bpred_2lev.jr_non_ras_seen.PP bpred_2lev.bpred_addr_rate bpred_2lev.bpred_dir_rate bpred_2lev.bpred_jr_rate bpred_2lev.bpred_jr_non_ras_rate.PP bpred_2lev.retstack_pushes bpred_2lev.retstack_pops bpred_2lev.used_ras.PP bpred_2lev.ras_hits.PP bpred_2lev.ras_rate.PP
4096 113.745849609375 29.9248046875 0.000244140625 465903.0000 18.761962890625 6.0626 18.761962890625 18.761962890625 12.91259765625 12.941162109375 5.82080078125 0.120849609375 0.120849609375 0 0 0.6882 0.6898 1.0000 <error: 0.121337890625 0.120849609375 0.120849609375 0.120849609375 1.0000 
8192 124.467163085938 31.94775390625 0.0001220703125 1019635.0000 20.670654296875 6.0214 20.670654296875 20.670654296875 14.4315185546875 14.4459228515625 6.2247314453125 0.116455078125 0.116455078125 0 0 0.6982 0.6989 1.0000 <error: 0.11669921875 0.116455078125 0.116455078125 0.116455078125 1.0000 
16384 132.07958984375 33.6799926757812 6.103515625e-05 2163992.0000 22.1214599609375 5.9707 22.1214599609375 22.1214599609375 15.53955078125 15.5468139648438 6.57464599609375 0.11065673828125 0.11065673828125 0 0 0.7025 0.7028 1.0000 <error: 0.11077880859375 0.11065673828125 0.11065673828125 0.11065673828125 1.0000 
32768 142.413269042969 35.81494140625 3.0517578125e-05 4666598.0000 23.9465026855469 5.9471 23.9465026855469 23.9465026855469 17.0253601074219 17.0289916992188 6.91751098632812 0.11016845703125 0.11016845703125 0 0 0.7110 0.7111 1.0000 <error: 0.1102294921875 0.11016845703125 0.11016845703125 0.11016845703125 1.0000 
65536 152.617004394531 38.1328582763672 1.52587890625e-05 10001908.0000 25.7924346923828 5.9171 25.7924346923828 25.7924346923828 18.3404083251953 18.3422546386719 7.45018005371094 0.107803344726562 0.107803344726562 0 0 0.7111 0.7111 1.0000 <error: 0.107833862304688 0.107803344726562 0.107803344726562 0.107803344726562 1.0000 
131072 158.389213562012 39.7159271240234 2.288818359375e-05 6920130.3333 26.829345703125 5.9036 26.829345703125 26.829345703125 18.7951889038086 18.7960968017578 8.03324890136719 0.107421875 0.107421875 0 0 0.7005 0.7006 1.0000 <error: 0.107437133789062 0.107421875 0.107421875 0.107421875 1.0000 
262144 171.741611480713 42.4147491455078 1.9073486328125e-05 9004206.6000 29.1704711914062 5.8875 29.1704711914062 29.1704711914062 20.9339332580566 20.9344024658203 8.23606872558594 0.107524871826172 0.107524871826172 0 0 0.7176 0.7177 1.0000 <error: 0.107532501220703 0.107524871826172 0.107524871826172 0.107524871826172 1.0000 
524288 179.478385925293 44.3612022399902 2.288818359375e-05 7841530.3333 30.6060485839844 5.8641 30.6060485839844 30.6060485839844 21.8151187896729 21.8153514862061 8.79069709777832 0.107290267944336 0.107290267944336 0 0 0.7128 0.7128 1.0000 <error: 0.107294082641602 0.107290267944336 0.107290267944336 0.107290267944336 1.0000 
1048576 191.039436340332 46.8030109405518 2.47955322265625e-05 7704591.0769 32.6235456466675 5.8559 32.6235456466675 32.6235456466675 23.5234403610229 23.5235500335693 9.09999561309814 0.107254028320312 0.107254028320312 0 0 0.7211 0.7211 1.0000 <error: 0.107255935668945 0.107254028320312 0.107254028320312 0.107254028320312 1.0000 
2097152 272.639992713928 68.578905582428 3.57627868652344e-05 7623566.7467 43.165506362915 6.3162 43.165506362915 43.165506362915 32.725634098053 32.7257213592529 10.4397850036621 0.115317821502686 0.115318298339844 0 4.76837158203125e-07 0.7581 0.7581 1.0000 0.0000 0.115318775177002 0.115317821502686 0.115317821502686 0.115317821502686 1.0000 
4194304 290.834966897964 75.0743036270142 3.79085540771484e-05 7672014.2453 46.5023698806763 6.2542 46.5023698806763 46.5023698806763 36.3264293670654 36.3264720439911 10.1758978366852 0.107814788818359 0.107815027236938 0 2.38418579101562e-07 0.7812 0.7812 1.0000 0.0000 0.107815265655518 0.107814788818359 0.107814788818359 0.107814788818359 1.0000 
