#set_size_in_keys sim_num_insn sim_num_refs sim_elapsed_time sim_inst_rate il1.accesses il1.hits il1.misses il1.replacements il1.writebacks il1.invalidations il1.miss_rate il1.repl_rate il1.wb_rate il1.inv_rate dl1.accesses dl1.hits dl1.misses dl1.replacements dl1.writebacks dl1.invalidations dl1.miss_rate dl1.repl_rate dl1.wb_rate dl1.inv_rate dl2.accesses dl2.hits dl2.misses dl2.replacements dl2.writebacks dl2.invalidations dl2.miss_rate dl2.repl_rate dl2.wb_rate dl2.inv_rate itlb.accesses itlb.hits itlb.misses itlb.replacements itlb.writebacks itlb.invalidations itlb.miss_rate itlb.repl_rate itlb.wb_rate itlb.inv_rate dtlb.accesses dtlb.hits dtlb.misses dtlb.replacements dtlb.writebacks dtlb.invalidations dtlb.miss_rate dtlb.repl_rate dtlb.wb_rate dtlb.inv_rate ld_text_base ld_text_size ld_data_base ld_data_size ld_stack_base ld_stack_size ld_prog_entry ld_environ_base ld_target_big_endian mem.page_count mem.page_mem mem.ptab_misses mem.ptab_accesses mem.ptab_miss_rate
4096 113.745849609375 29.9248046875 0.002197265625 51767.0000 113.745849609375 113.64111328125 0.104736328125 0.042236328125 0 0 0.0009 0.0004 0.0000 0.0000 33.9443359375 33.35791015625 0.58642578125 0.52392578125 0.495361328125 0 0.0173 0.0154 0.0146 0.0000 1.1865234375 0.849609375 0.3369140625 0 0 0 0.2840 0.0000 0.0000 0.0000 113.745849609375 113.742919921875 0.0029296875 0 0 0 0.0000 0.0000 0.0000 0.0000 33.9443359375 33.94140625 0.0029296875 0 0 0 0.0001 0.0000 0.0000 0.0000 0x00400000 19.75 0x10000000 2.0205078125 0x7fffc000 4 0x00400140 0x7fff8000 0 0.0078125 128k 0.0078125 645.05322265625 0.0000 
8192 124.467163085938 31.94775390625 0.0013427734375 92694.0909 124.467163085938 124.414672851562 0.052490234375 0.021240234375 0 0 0.0004 0.0002 0.0000 0.0000 35.95751953125 35.289306640625 0.668212890625 0.636962890625 0.57470703125 0 0.0186 0.0177 0.0160 0.0000 1.29541015625 1.0643310546875 0.2310791015625 0 0 0 0.1784 0.0000 0.0000 0.0000 124.467163085938 124.465698242188 0.00146484375 0 0 0 0.0000 0.0000 0.0000 0.0000 35.95751953125 35.95556640625 0.001953125 0 0 0 0.0001 0.0000 0.0000 0.0000 0x00400000 9.87890625 0x10000000 1.01025390625 0x7fffc000 2 0x00400140 0x7fff8000 0 0.00439453125 144k 0.00439453125 630.897705078125 0.0000 
16384 132.07958984375 33.6799926757812 0.0009765625 135249.5000 132.07958984375 132.053100585938 0.0264892578125 0.0108642578125 0 0 0.0002 0.0001 0.0000 0.0000 37.6848754882812 36.93603515625 0.74884033203125 0.73321533203125 0.6861572265625 0 0.0199 0.0195 0.0182 0.0000 1.46148681640625 1.2840576171875 0.17742919921875 0 0 0 0.1214 0.0000 0.0000 0.0000 132.07958984375 132.078857421875 0.000732421875 0 0 0 0.0000 0.0000 0.0000 0.0000 37.6848754882812 37.6834106445312 0.00146484375 0 0 0 0.0000 0.0000 0.0000 0.0000 0x00400000 4.9404296875 0x10000000 0.505126953125 0x7fffc000 1 0x00400140 0x7fff8000 0 0.002685546875 176k 0.002685546875 634.2509765625 0.0000 
32768 142.413269042969 35.81494140625 0.0008544921875 166664.2143 142.413269042969 142.400421142578 0.012847900390625 0.005035400390625 0 0 0.0001 0.0000 0.0000 0.0000 39.8173828125 38.8999328613281 0.917449951171875 0.909637451171875 0.835479736328125 0 0.0230 0.0228 0.0210 0.0000 1.76577758789062 1.61495971679688 0.15081787109375 0 0 0 0.0854 0.0000 0.0000 0.0000 142.413269042969 142.412902832031 0.0003662109375 0 0 0 0.0000 0.0000 0.0000 0.0000 39.8173828125 39.816162109375 0.001220703125 0 0 0 0.0000 0.0000 0.0000 0.0000 0x00400000 2.470703125 0x10000000 0.2525634765625 0x7fffc000 0.5 0x00400140 0x7fff8000 0 0.0018310546875 240k 0.0018310546875 664.572204589844 0.0000 
65536 152.617004394531 38.1328582763672 0.000762939453125 200038.1600 152.617004394531 152.610427856445 0.0065765380859375 0.0026702880859375 0 0 0.0000 0.0000 0.0000 0.0000 42.1340789794922 41.0578460693359 1.07623291015625 1.07232666015625 0.950088500976562 0 0.0255 0.0255 0.0225 0.0000 2.03289794921875 1.89485168457031 0.138046264648438 0 0 0 0.0679 0.0000 0.0000 0.0000 152.617004394531 152.616821289062 0.00018310546875 0 0 0 0.0000 0.0000 0.0000 0.0000 42.1340789794922 42.1329803466797 0.0010986328125 0 0 0 0.0000 0.0000 0.0000 0.0000 0x00400000 1.2353515625 0x10000000 0.12628173828125 0x7fffc000 0.25 0x00400140 0x7fff8000 0 0.00140380859375 368k 0.00140380859375 702.378356933594 0.0000 
131072 158.389213562012 39.7159271240234 0.000701904296875 225656.4239 158.389213562012 158.385864257812 0.00334930419921875 0.00139617919921875 0 0 0.0000 0.0000 0.0000 0.0000 43.7165374755859 42.5810775756836 1.13545989990234 1.13350677490234 1.05975341796875 0 0.0260 0.0259 0.0242 0.0000 2.19856262207031 2.06697845458984 0.131584167480469 0 0 0 0.0599 0.0000 0.0000 0.0000 158.389213562012 158.389122009277 9.1552734375e-05 0 0 0 0.0000 0.0000 0.0000 0.0000 43.7165374755859 43.7152633666992 0.00127410888671875 0.00029754638671875 0.00028228759765625 0 0.0000 0.0000 0.0000 0.0000 0x00400000 0.61767578125 0x10000000 0.063140869140625 0x7fffc000 0.125 0x00400140 0x7fff8000 0 0.001190185546875 624k 0.001190185546875 724.811019897461 0.0000 
262144 171.741611480713 42.4147491455078 0.0006561279296875 261750.1919 171.741611480713 171.739936828613 0.00167465209960938 0.000698089599609375 0 0 0.0000 0.0000 0.0000 0.0000 46.4150543212891 45.0319023132324 1.38315200805664 1.38217544555664 1.23580169677734 0 0.0298 0.0298 0.0266 0.0000 2.62062835693359 2.49233627319336 0.128292083740234 0 0 0 0.0490 0.0000 0.0000 0.0000 171.741611480713 171.741565704346 4.57763671875e-05 0 0 0 0.0000 0.0000 0.0000 0.0000 46.4150543212891 46.4117279052734 0.003326416015625 0.002838134765625 0.00283050537109375 0 0.0001 0.0001 0.0001 0.0000 0x00400000 0.308837890625 0x10000000 0.0315704345703125 0x7fffc000 0.0625 0x00400140 0x7fff8000 0 0.0010833740234375 1136k 0.0010833740234375 781.707099914551 0.0000 
524288 179.478385925293 44.3612022399902 0.0005645751953125 317899.8784 179.478385925293 179.477554321289 0.00083160400390625 0.00034332275390625 0 0 0.0000 0.0000 0.0000 0.0000 48.3613548278809 46.8628997802734 1.49845504760742 1.49796676635742 1.35207176208496 0 0.0310 0.0310 0.0280 0.0000 2.85135841369629 2.72471809387207 0.126640319824219 0 0 0 0.0444 0.0000 0.0000 0.0000 179.478385925293 179.478363037109 2.288818359375e-05 0 0 0 0.0000 0.0000 0.0000 0.0000 48.3613548278809 48.3570384979248 0.00431632995605469 0.00407218933105469 0.00406837463378906 0 0.0001 0.0001 0.0001 0.0000 0x00400000 0.1544189453125 0x10000000 0.0157852172851562 0x7fffc000 0.03125 0x00400140 0x7fff8000 0 0.00102996826171875 2160k 0.00102996826171875 815.591526031494 0.0000 
1048576 191.039436340332 46.8030109405518 0.000394821166992188 483863.2077 191.039436340332 191.039017677307 0.000418663024902344 0.000174522399902344 0 0 0.0000 0.0000 0.0000 0.0000 50.8030872344971 49.1100435256958 1.69304370880127 1.69279956817627 1.50680732727051 0 0.0333 0.0333 0.0297 0.0000 3.20026969909668 3.04978466033936 0.150485038757324 0.0254850387573242 0.0252685546875 0 0.0470 0.0080 0.0079 0.0000 191.039436340332 191.03942489624 1.1444091796875e-05 0 0 0 0.0000 0.0000 0.0000 0.0000 50.8030872344971 50.7967910766602 0.00629615783691406 0.00617408752441406 0.00617218017578125 0 0.0001 0.0001 0.0001 0.0000 0x00400000 0.07720947265625 0x10000000 0.00789260864257812 0x7fffc000 0.015625 0x00400140 0x7fff8000 0 0.00100326538085938 4208k 0.00100326538085938 866.241556167603 0.0000 
2097152 272.639992713928 68.578905582428 0.000275135040283203 990931.5529 272.639992713928 272.639662265778 0.000330448150634766 0.000208377838134766 0 0 0.0000 0.0000 0.0000 0.0000 72.5789442062378 70.684401512146 1.8945426940918 1.8944206237793 1.53969860076904 0 0.0261 0.0261 0.0212 0.0000 3.43457174301147 2.81308364868164 0.621488094329834 0.558988094329834 0.341654777526855 0 0.1810 0.1628 0.0995 0.0000 272.639992713928 272.639986991882 5.7220458984375e-06 0 0 0 0.0000 0.0000 0.0000 0.0000 72.5789442062378 72.5717005729675 0.00724363327026367 0.00718259811401367 0.00619792938232422 0 0.0001 0.0001 0.0001 0.0000 0x00400000 0.038604736328125 0x10000000 0.00394630432128906 0x7fffc000 0.0078125 0x00400140 0x7fff8000 0 0.00197792053222656 16592k 0.0107583999633789 1235.95667743683 0.0000 
4194304 290.834966897964 75.0743036270142 0.000173330307006836 1677923.3356 290.834966897964 290.834800958633 0.000165939331054688 0.000104904174804688 0 0 0.0000 0.0000 0.0000 0.0000 79.0743229389191 76.9468033313751 2.12751960754395 2.1274585723877 1.75998425483704 0 0.0269 0.0269 0.0223 0.0000 3.88766980171204 3.01838111877441 0.869288682937622 0.838038682937622 0.591056346893311 0 0.2236 0.2156 0.1520 0.0000 290.834966897964 290.834964036942 2.86102294921875e-06 0 0 0 0.0000 0.0000 0.0000 0.0000 79.0743229389191 79.0646221637726 0.00970077514648438 0.00967025756835938 0.00868606567382812 0 0.0001 0.0001 0.0001 0.0000 0x00400000 0.0193023681640625 0x10000000 0.00197315216064453 0x7fffc000 0.00390625 0x00400140 0x7fff8000 0 0.00197100639343262 33068k 0.00831055641174316 1321.60792255402 0.0000 
