#set_size_in_keys sim_num_insn sim_num_refs sim_elapsed_time sim_inst_rate il1.accesses il1.hits il1.misses il1.replacements il1.writebacks il1.invalidations il1.miss_rate il1.repl_rate il1.wb_rate il1.inv_rate dl1.accesses dl1.hits dl1.misses dl1.replacements dl1.writebacks dl1.invalidations dl1.miss_rate dl1.repl_rate dl1.wb_rate dl1.inv_rate dl2.accesses dl2.hits dl2.misses dl2.replacements dl2.writebacks dl2.invalidations dl2.miss_rate dl2.repl_rate dl2.wb_rate dl2.inv_rate itlb.accesses itlb.hits itlb.misses itlb.replacements itlb.writebacks itlb.invalidations itlb.miss_rate itlb.repl_rate itlb.wb_rate itlb.inv_rate dtlb.accesses dtlb.hits dtlb.misses dtlb.replacements dtlb.writebacks dtlb.invalidations dtlb.miss_rate dtlb.repl_rate dtlb.wb_rate dtlb.inv_rate ld_text_base ld_text_size ld_data_base ld_data_size ld_stack_base ld_stack_size ld_prog_entry ld_environ_base ld_target_big_endian mem.page_count mem.page_mem mem.ptab_misses mem.ptab_accesses mem.ptab_miss_rate
4096 246.52197265625 69.335205078125 0.000244140625 1009754.0000 246.52197265625 246.313720703125 0.208251953125 0.095947265625 0 0 0.0008 0.0004 0.0000 0.0000 69.352294921875 67.335693359375 2.0166015625 1.8916015625 1.60986328125 0 0.0291 0.0273 0.0232 0.0000 3.834716796875 2.916015625 0.918701171875 0.168701171875 0.085205078125 0 0.2396 0.0440 0.0222 0.0000 246.52197265625 246.52001953125 0.001953125 0 0 0 0.0000 0.0000 0.0000 0.0000 69.352294921875 69.3486328125 0.003662109375 0 0 0 0.0001 0.0000 0.0000 0.0000 0x00400000 7.109375 0x10000000 1 0x7fffc000 4 0x00400140 0x7fff8000 0 0.005615234375 92k 0.005615234375 1168.72216796875 0.0000 
8192 261.080322265625 72.3802490234375 0.0001220703125 2138770.0000 261.080322265625 260.97265625 0.107666015625 0.0506591796875 0 0 0.0004 0.0002 0.0000 0.0000 72.3887939453125 69.956298828125 2.4324951171875 2.3699951171875 2.0631103515625 0 0.0336 0.0327 0.0285 0.0000 4.603271484375 3.8902587890625 0.7130126953125 0.0877685546875 0.0457763671875 0 0.1549 0.0191 0.0099 0.0000 261.080322265625 261.079345703125 0.0009765625 0 0 0 0.0000 0.0000 0.0000 0.0000 72.3887939453125 72.385986328125 0.0028076171875 0 0 0 0.0000 0.0000 0.0000 0.0000 0x00400000 3.55859375 0x10000000 0.5 0x7fffc000 2 0x00400140 0x7fff8000 0 0.0037841796875 124k 0.0037841796875 1211.08715820312 0.0000 
16384 276.476379394531 75.8631591796875 0.00018310546875 1509929.6667 276.476379394531 276.422485351562 0.05389404296875 0.025390625 0 0 0.0002 0.0001 0.0000 0.0000 75.867431640625 72.8644409179688 3.00299072265625 2.97174072265625 2.6429443359375 0 0.0396 0.0392 0.0348 0.0000 5.6998291015625 5.09326171875 0.6065673828125 0.0439453125 0.02294921875 0 0.1064 0.0077 0.0040 0.0000 276.476379394531 276.475891113281 0.00048828125 0 0 0 0.0000 0.0000 0.0000 0.0000 75.867431640625 75.8650512695312 0.00238037109375 0 0 0 0.0000 0.0000 0.0000 0.0000 0x00400000 1.7802734375 0x10000000 0.25 0x7fffc000 1 0x00400140 0x7fff8000 0 0.00286865234375 188k 0.00286865234375 1268.64038085938 0.0000 
32768 292.192596435547 79.5547790527344 0.000152587890625 1914913.4000 292.192596435547 292.165618896484 0.0269775390625 0.0126953125 0 0 0.0001 0.0000 0.0000 0.0000 79.5569152832031 75.9964904785156 3.5604248046875 3.5447998046875 3.20144653320312 0 0.0448 0.0446 0.0402 0.0000 6.78884887695312 6.23553466796875 0.553314208984375 0.022003173828125 0.011505126953125 0 0.0815 0.0032 0.0017 0.0000 292.192596435547 292.192352294922 0.000244140625 0 0 0 0.0000 0.0000 0.0000 0.0000 79.5569152832031 79.5547485351562 0.002166748046875 0 0 0 0.0000 0.0000 0.0000 0.0000 0x00400000 0.89111328125 0x10000000 0.125 0x7fffc000 0.5 0x00400140 0x7fff8000 0 0.002410888671875 316k 0.002410888671875 1333.39007568359 0.0000 
65536 308.784133911133 83.4941711425781 0.000244140625 1264779.8125 308.784133911133 308.770645141602 0.01348876953125 0.00634765625 0 0 0.0000 0.0000 0.0000 0.0000 83.4952392578125 79.3075103759766 4.18772888183594 4.17991638183594 3.82881164550781 0 0.0502 0.0501 0.0459 0.0000 8.030029296875 7.50334167480469 0.526687622070312 0.0110321044921875 0.0057525634765625 0 0.0656 0.0014 0.0007 0.0000 308.784133911133 308.78401184082 0.0001220703125 0 0 0 0.0000 0.0000 0.0000 0.0000 83.4952392578125 83.4930267333984 0.0022125244140625 0.0002593994140625 0.0002288818359375 0 0.0000 0.0000 0.0000 0.0000 0x00400000 0.445556640625 0x10000000 0.0625 0x7fffc000 0.25 0x00400140 0x7fff8000 0 0.0021820068359375 572k 0.0021820068359375 1404.87994384766 0.0000 
131072 325.010185241699 87.3915328979492 0.00026702880859375 1217135.2857 325.010185241699 325.003440856934 0.006744384765625 0.003173828125 0 0 0.0000 0.0000 0.0000 0.0000 87.3920669555664 82.623161315918 4.76890563964844 4.76499938964844 4.40774536132812 0 0.0546 0.0545 0.0504 0.0000 9.18339538574219 8.67005157470703 0.513343811035156 0.00551605224609375 0.00287628173828125 0 0.0559 0.0006 0.0003 0.0000 325.010185241699 325.010124206543 6.103515625e-05 0 0 0 0.0000 0.0000 0.0000 0.0000 87.3920669555664 87.3860321044922 0.00603485107421875 0.00505828857421875 0.00409698486328125 0 0.0001 0.0001 0.0000 0.0000 0x00400000 0.2227783203125 0x10000000 0.03125 0x7fffc000 0.125 0x00400140 0x7fff8000 0 0.00206756591796875 1084k 0.00206756591796875 1476.20133972168 0.0000 
262144 341.729030609131 91.411003112793 0.00037384033203125 914104.2347 341.729030609131 341.725658416748 0.0033721923828125 0.0015869140625 0 0 0.0000 0.0000 0.0000 0.0000 91.4112701416016 86.0297546386719 5.38151550292969 5.37956237792969 5.01783752441406 0 0.0589 0.0589 0.0549 0.0000 10.4027252197266 9.89606094360352 0.506664276123047 0.00275039672851562 0.00143814086914062 0 0.0487 0.0003 0.0001 0.0000 341.729030609131 341.729000091553 3.0517578125e-05 0 0 0 0.0000 0.0000 0.0000 0.0000 91.4112701416016 91.1924171447754 0.218852996826172 0.218364715576172 0.206527709960938 0 0.0024 0.0024 0.0023 0.0000 0x00400000 0.11138916015625 0x10000000 0.015625 0x7fffc000 0.0625 0x00400140 0x7fff8000 0 0.00201034545898438 2108k 0.00201034545898438 1550.4268951416 0.0000 
524288 358.02222442627 95.349609375 0.000391006469726562 915642.7122 358.02222442627 358.020538330078 0.00168609619140625 0.00079345703125 0 0 0.0000 0.0000 0.0000 0.0000 95.3497428894043 89.3938694000244 5.95587348937988 5.95489692687988 5.59064674377441 0 0.0625 0.0625 0.0586 0.0000 11.5482063293457 11.0360546112061 0.512151718139648 0.0160884857177734 0.0154323577880859 0 0.0443 0.0014 0.0013 0.0000 358.02222442627 358.02220916748 1.52587890625e-05 0 0 0 0.0000 0.0000 0.0000 0.0000 95.3497428894043 94.6810646057129 0.668678283691406 0.668434143066406 0.632917404174805 0 0.0070 0.0070 0.0066 0.0000 0x00400000 0.055694580078125 0x10000000 0.0078125 0x7fffc000 0.03125 0x00400140 0x7fff8000 0 0.00198173522949219 4156k 0.00198173522949219 1623.13249969482 0.0000 
1048576 374.791726112366 99.3974514007568 0.000409126281738281 916078.3427 374.791726112366 374.790814399719 0.000911712646484375 0.000462532043457031 0 0 0.0000 0.0000 0.0000 0.0000 99.397518157959 92.8407001495361 6.55681800842285 6.55632972717285 6.18788719177246 0 0.0660 0.0660 0.0623 0.0000 12.7456169128418 11.3838958740234 1.36172103881836 1.11172103881836 0.866737365722656 0 0.1068 0.0872 0.0680 0.0000 374.791726112366 374.791718482971 7.62939453125e-06 0 0 0 0.0000 0.0000 0.0000 0.0000 99.397518157959 98.1636638641357 1.23385429382324 1.23373222351074 1.1773509979248 0 0.0124 0.0124 0.0118 0.0000 0x00400000 0.0278472900390625 0x10000000 0.00390625 0x7fffc000 0.015625 0x00400140 0x7fff8000 0 0.00197315216064453 8276k 0.0107259750366211 1698.13399887085 0.0000 
2097152 391.09703874588 103.345524311066 0.000319004058837891 1225993.9268 391.09703874588 391.096582889557 0.000455856323242188 0.000231266021728516 0 0 0.0000 0.0000 0.0000 0.0000 103.345557689667 96.2287907600403 7.11676692962646 7.11652278900146 6.74678564071655 0 0.0689 0.0689 0.0653 0.0000 13.8640084266663 12.1075658798218 1.75644254684448 1.63144254684448 1.36244821548462 0 0.1267 0.1177 0.0983 0.0000 391.09703874588 391.097034931183 3.814697265625e-06 0 0 0 0.0000 0.0000 0.0000 0.0000 103.345557689667 101.508962631226 1.83659505844116 1.83653402328491 1.76558113098145 0 0.0178 0.0178 0.0171 0.0000 0x00400000 0.0139236450195312 0x10000000 0.001953125 0x7fffc000 0.0078125 0x00400140 0x7fff8000 0 0.00196599960327148 16492k 0.0110344886779785 1771.16529941559 0.0000 
4194304 407.856253862381 107.388444185257 0.000223398208618164 1825691.6937 407.856253862381 407.856025934219 0.000227928161621094 0.000115633010864258 0 0 0.0000 0.0000 0.0000 0.0000 107.388460874557 99.6876146793365 7.70084619522095 7.70072412490845 7.32895135879517 0 0.0717 0.0717 0.0682 0.0000 15.0300254821777 12.779443025589 2.25058245658875 2.18808245658875 1.89401340484619 0 0.1497 0.1456 0.1260 0.0000 407.856253862381 407.856251955032 1.9073486328125e-06 0 0 0 0.0000 0.0000 0.0000 0.0000 107.388460874557 104.933607816696 2.45485305786133 2.4548225402832 2.3745391368866 0 0.0229 0.0229 0.0221 0.0000 0x00400000 0.00696182250976562 0x10000000 0.0009765625 0x7fffc000 0.00390625 0x00400140 0x7fff8000 0 0.00196242332458496 32924k 0.0154678821563721 1846.24495172501 0.0000 
