#set_size_in_keys sim_num_insn sim_num_refs sim_elapsed_time sim_inst_rate sim_num_branches sim_IPB bpred_2lev.lookups bpred_2lev.updates bpred_2lev.addr_hits bpred_2lev.dir_hits bpred_2lev.misses bpred_2lev.jr_hits bpred_2lev.jr_seen bpred_2lev.jr_non_ras_hits.PP bpred_2lev.jr_non_ras_seen.PP bpred_2lev.bpred_addr_rate bpred_2lev.bpred_dir_rate bpred_2lev.bpred_jr_rate bpred_2lev.bpred_jr_non_ras_rate.PP bpred_2lev.retstack_pushes bpred_2lev.retstack_pops bpred_2lev.used_ras.PP bpred_2lev.ras_hits.PP bpred_2lev.ras_rate.PP
4096 217.759033203125 57.16748046875 0.000244140625 891941.0000 27.52880859375 7.9102 27.52880859375 27.52880859375 21.546630859375 21.573486328125 5.955322265625 0.014892578125 0.01513671875 0 0.000244140625 0.7827 0.7837 0.9839 0.0000 0.015380859375 0.014892578125 0.014892578125 0.014892578125 1.0000 
8192 233.949951171875 59.7080078125 0.0001220703125 1916518.0000 29.772216796875 7.8580 29.772216796875 29.772216796875 23.312744140625 23.3265380859375 6.4456787109375 0.0081787109375 0.00830078125 0 0 0.7830 0.7835 0.9853 <error: 0.008544921875 0.00830078125 0.00830078125 0.0081787109375 0.9853 
16384 255.540710449219 66.4793701171875 6.103515625e-05 4186779.0000 32.331787109375 7.9037 32.331787109375 32.331787109375 25.3807373046875 25.3876342773438 6.94415283203125 0.00421142578125 0.00433349609375 0 6.103515625e-05 0.7850 0.7852 0.9718 0.0000 0.00439453125 0.0042724609375 0.0042724609375 0.00421142578125 0.9857 
32768 272.337554931641 69.3616638183594 3.0517578125e-05 8923957.0000 34.689697265625 7.8507 34.689697265625 34.689697265625 27.27001953125 27.2734680175781 7.41622924804688 0.002044677734375 0.0020751953125 0 0 0.7861 0.7862 0.9853 <error: 0.00213623046875 0.0020751953125 0.0020751953125 0.002044677734375 0.9853 
65536 294.223342895508 76.3019714355469 4.57763671875e-05 6427407.0000 37.2983551025391 7.8884 37.2983551025391 37.2983551025391 29.3875274658203 29.3892822265625 7.90907287597656 0.0010528564453125 0.0010833740234375 0 1.52587890625e-05 0.7879 0.7880 0.9718 0.0000 0.0010986328125 0.001068115234375 0.001068115234375 0.0010528564453125 0.9857 
131072 311.161071777344 79.2719497680664 3.814697265625e-05 8156900.8000 39.6604232788086 7.8456 39.6604232788086 39.6604232788086 31.2557067871094 31.2565460205078 8.40387725830078 0.00051116943359375 0.000518798828125 0 0 0.7881 0.7881 0.9853 <error: 0.0005340576171875 0.000518798828125 0.000518798828125 0.00051116943359375 0.9853 
262144 333.140933990479 86.2575607299805 3.814697265625e-05 8733089.7000 42.2857208251953 7.8783 42.2857208251953 42.2857208251953 33.3718757629395 33.3723106384277 8.91341018676758 0.000263214111328125 0.000270843505859375 0 3.814697265625e-06 0.7892 0.7892 0.9718 0.0000 0.000274658203125 0.00026702880859375 0.00026702880859375 0.000263214111328125 0.9857 
524288 350.131635665894 89.2525463104248 4.00543212890625e-05 8741419.7619 44.6598377227783 7.8400 44.6598377227783 44.6598377227783 35.2548027038574 35.2550144195557 9.40482330322266 0.000127792358398438 0.00012969970703125 0 0 0.7894 0.7894 0.9853 <error: 0.000133514404296875 0.00012969970703125 0.00012969970703125 0.000127792358398438 0.9853 
1048576 372.129017829895 96.2559185028076 4.48226928710938e-05 8302245.8936 47.2798852920532 7.8708 47.2798852920532 47.2798852920532 37.3736391067505 37.37375831604 9.90612697601318 6.96182250976562e-05 7.05718994140625e-05 9.5367431640625e-07 1.9073486328125e-06 0.7905 0.7905 0.9865 0.5000 7.05718994140625e-05 6.866455078125e-05 6.866455078125e-05 6.866455078125e-05 1.0000 
2097152 389.127018451691 99.2530527114868 4.67300415039062e-05 8327127.6020 49.655134677887 7.8366 49.655134677887 49.655134677887 39.2495450973511 39.249605178833 10.405529499054 3.33786010742188e-05 3.38554382324219e-05 0 4.76837158203125e-07 0.7904 0.7904 0.9859 0.0000 3.4332275390625e-05 3.33786010742188e-05 3.33786010742188e-05 3.33786010742188e-05 1.0000 
4194304 411.128880262375 106.251974582672 4.93526458740234e-05 8330432.4010 52.2821524143219 7.8637 52.2821524143219 52.2821524143219 41.3748500347137 41.3748795986176 10.9072728157043 1.74045562744141e-05 1.76429748535156e-05 2.38418579101562e-07 4.76837158203125e-07 0.7914 0.7914 0.9865 0.5000 1.76429748535156e-05 1.71661376953125e-05 1.71661376953125e-05 1.71661376953125e-05 1.0000 
