#set_size_in_keys sim_num_insn sim_num_refs sim_elapsed_time sim_inst_rate sim_num_branches sim_IPB bpred_2lev.lookups bpred_2lev.updates bpred_2lev.addr_hits bpred_2lev.dir_hits bpred_2lev.misses bpred_2lev.jr_hits bpred_2lev.jr_seen bpred_2lev.jr_non_ras_hits.PP bpred_2lev.jr_non_ras_seen.PP bpred_2lev.bpred_addr_rate bpred_2lev.bpred_dir_rate bpred_2lev.bpred_jr_rate bpred_2lev.bpred_jr_non_ras_rate.PP bpred_2lev.retstack_pushes bpred_2lev.retstack_pops bpred_2lev.used_ras.PP bpred_2lev.ras_hits.PP bpred_2lev.ras_rate.PP
4096 217.759033203125 57.16748046875 0.000244140625 891941.0000 27.52880859375 7.9102 27.52880859375 27.52880859375 21.576904296875 21.603515625 5.92529296875 0.014892578125 0.01513671875 0 0.000244140625 0.7838 0.7848 0.9839 0.0000 0.015380859375 0.014892578125 0.014892578125 0.014892578125 1.0000 
8192 233.949951171875 59.7080078125 0.0001220703125 1916518.0000 29.772216796875 7.8580 29.772216796875 29.772216796875 23.3577880859375 23.371337890625 6.40087890625 0.0081787109375 0.00830078125 0 0 0.7845 0.7850 0.9853 <error: 0.008544921875 0.00830078125 0.00830078125 0.0081787109375 0.9853 
16384 255.540710449219 66.4793701171875 6.103515625e-05 4186779.0000 32.331787109375 7.9037 32.331787109375 32.331787109375 25.41162109375 25.4185180664062 6.91326904296875 0.00421142578125 0.00433349609375 0 6.103515625e-05 0.7860 0.7862 0.9718 0.0000 0.00439453125 0.0042724609375 0.0042724609375 0.00421142578125 0.9857 
32768 272.337554931641 69.3616638183594 3.0517578125e-05 8923957.0000 34.689697265625 7.8507 34.689697265625 34.689697265625 27.3107604980469 27.3141479492188 7.37554931640625 0.002044677734375 0.0020751953125 0 0 0.7873 0.7874 0.9853 <error: 0.00213623046875 0.0020751953125 0.0020751953125 0.002044677734375 0.9853 
65536 294.223342895508 76.3019714355469 3.0517578125e-05 9641110.5000 37.2983551025391 7.8884 37.2983551025391 37.2983551025391 29.4234466552734 29.4252319335938 7.87312316894531 0.0010528564453125 0.0010833740234375 0 1.52587890625e-05 0.7889 0.7889 0.9718 0.0000 0.0010986328125 0.001068115234375 0.001068115234375 0.0010528564453125 0.9857 
131072 311.161071777344 79.2719497680664 3.814697265625e-05 8156900.8000 39.6604232788086 7.8456 39.6604232788086 39.6604232788086 31.2953643798828 31.2961959838867 8.36422729492188 0.00051116943359375 0.000518798828125 0 0 0.7891 0.7891 0.9853 <error: 0.0005340576171875 0.000518798828125 0.000518798828125 0.00051116943359375 0.9853 
262144 333.140933990479 86.2575607299805 4.1961669921875e-05 7939172.4545 42.2857208251953 7.8783 42.2857208251953 42.2857208251953 33.4132804870605 33.4137115478516 8.87200927734375 0.000263214111328125 0.000270843505859375 0 3.814697265625e-06 0.7902 0.7902 0.9718 0.0000 0.000274658203125 0.00026702880859375 0.00026702880859375 0.000263214111328125 0.9857 
524288 350.131635665894 89.2525463104248 4.00543212890625e-05 8741419.7619 44.6598377227783 7.8400 44.6598377227783 44.6598377227783 35.2916965484619 35.2919063568115 9.3679313659668 0.000127792358398438 0.00012969970703125 0 0 0.7902 0.7902 0.9853 <error: 0.000133514404296875 0.00012969970703125 0.00012969970703125 0.000127792358398438 0.9853 
1048576 372.129017829895 96.2559185028076 4.48226928710938e-05 8302245.8936 47.2798852920532 7.8708 47.2798852920532 47.2798852920532 37.4121971130371 37.4123153686523 9.86756992340088 6.96182250976562e-05 7.05718994140625e-05 9.5367431640625e-07 1.9073486328125e-06 0.7913 0.7913 0.9865 0.5000 7.05718994140625e-05 6.866455078125e-05 6.866455078125e-05 6.866455078125e-05 1.0000 
2097152 389.127018451691 99.2530527114868 4.67300415039062e-05 8327127.6020 49.655134677887 7.8366 49.655134677887 49.655134677887 39.2880868911743 39.2881464958191 10.3669881820679 3.33786010742188e-05 3.38554382324219e-05 0 4.76837158203125e-07 0.7912 0.7912 0.9859 0.0000 3.4332275390625e-05 3.33786010742188e-05 3.33786010742188e-05 3.33786010742188e-05 1.0000 
4194304 411.128880262375 106.251974582672 4.93526458740234e-05 8330432.4010 52.2821524143219 7.8637 52.2821524143219 52.2821524143219 41.4133493900299 41.4133789539337 10.8687734603882 1.74045562744141e-05 1.76429748535156e-05 2.38418579101562e-07 4.76837158203125e-07 0.7921 0.7921 0.9865 0.5000 1.76429748535156e-05 1.71661376953125e-05 1.71661376953125e-05 1.71661376953125e-05 1.0000 
