#set_size_in_keys sim_num_insn sim_num_refs sim_elapsed_time sim_inst_rate il1.accesses il1.hits il1.misses il1.replacements il1.writebacks il1.invalidations il1.miss_rate il1.repl_rate il1.wb_rate il1.inv_rate dl1.accesses dl1.hits dl1.misses dl1.replacements dl1.writebacks dl1.invalidations dl1.miss_rate dl1.repl_rate dl1.wb_rate dl1.inv_rate dl2.accesses dl2.hits dl2.misses dl2.replacements dl2.writebacks dl2.invalidations dl2.miss_rate dl2.repl_rate dl2.wb_rate dl2.inv_rate itlb.accesses itlb.hits itlb.misses itlb.replacements itlb.writebacks itlb.invalidations itlb.miss_rate itlb.repl_rate itlb.wb_rate itlb.inv_rate dtlb.accesses dtlb.hits dtlb.misses dtlb.replacements dtlb.writebacks dtlb.invalidations dtlb.miss_rate dtlb.repl_rate dtlb.wb_rate dtlb.inv_rate ld_text_base ld_text_size ld_data_base ld_data_size ld_stack_base ld_stack_size ld_prog_entry ld_environ_base ld_target_big_endian mem.page_count mem.page_mem mem.ptab_misses mem.ptab_accesses mem.ptab_miss_rate
4096 217.759033203125 57.16748046875 0.00244140625 89194.1000 217.759033203125 217.670654296875 0.08837890625 0.02587890625 0 0 0.0004 0.0001 0.0000 0.0000 61.18701171875 57.9482421875 3.23876953125 3.17626953125 1.699951171875 0 0.0529 0.0519 0.0278 0.0000 5.027099609375 4.587890625 0.439208984375 0 0 0 0.0874 0.0000 0.0000 0.0000 217.759033203125 217.756591796875 0.00244140625 0 0 0 0.0000 0.0000 0.0000 0.0000 61.18701171875 61.183349609375 0.003662109375 0 0 0 0.0001 0.0000 0.0000 0.0000 0x00400000 18.046875 0x10000000 2.0126953125 0x7fffc000 4 0x00400140 0x7fff8000 0 0.00830078125 136k 0.00830078125 1105.35986328125 0.0000 
8192 233.949951171875 59.7080078125 0.0018310546875 127767.8667 233.949951171875 233.909790039062 0.0401611328125 0.0089111328125 0 0 0.0002 0.0000 0.0000 0.0000 63.7177734375 60.5352783203125 3.1824951171875 3.1512451171875 1.6630859375 0 0.0499 0.0495 0.0261 0.0000 4.8857421875 4.5452880859375 0.3404541015625 0 0 0 0.0697 0.0000 0.0000 0.0000 233.949951171875 233.94873046875 0.001220703125 0 0 0 0.0000 0.0000 0.0000 0.0000 63.7177734375 63.7149658203125 0.0028076171875 0 0 0 0.0000 0.0000 0.0000 0.0000 0x00400000 9.02734375 0x10000000 1.00634765625 0x7fffc000 2 0x00400140 0x7fff8000 0 0.005126953125 168k 0.005126953125 1119.23364257812 0.0000 
16384 255.540710449219 66.4793701171875 0.0015869140625 161029.9615 255.540710449219 255.518859863281 0.0218505859375 0.0062255859375 0 0 0.0001 0.0000 0.0000 0.0000 70.4842529296875 66.8294067382812 3.65484619140625 3.63922119140625 1.89501953125 0 0.0519 0.0516 0.0269 0.0000 5.57171630859375 5.27459716796875 0.297119140625 0 0 0 0.0533 0.0000 0.0000 0.0000 255.540710449219 255.5400390625 0.00067138671875 0 0 0 0.0000 0.0000 0.0000 0.0000 70.4842529296875 70.4818725585938 0.00238037109375 0 0 0 0.0000 0.0000 0.0000 0.0000 0x00400000 4.5146484375 0x10000000 0.503173828125 0x7fffc000 1 0x00400140 0x7fff8000 0 0.0035400390625 232k 0.0035400390625 1191.13635253906 0.0000 
32768 272.337554931641 69.3616638183594 0.001495361328125 182121.5714 272.337554931641 272.327484130859 0.01007080078125 0.00225830078125 0 0 0.0000 0.0000 0.0000 0.0000 73.3641052246094 69.7234191894531 3.64068603515625 3.63287353515625 1.88580322265625 0 0.0496 0.0495 0.0257 0.0000 5.53656005859375 5.263916015625 0.27264404296875 0 0 0 0.0492 0.0000 0.0000 0.0000 272.337554931641 272.337219238281 0.000335693359375 0 0 0 0.0000 0.0000 0.0000 0.0000 73.3641052246094 73.3619384765625 0.002166748046875 0 0 0 0.0000 0.0000 0.0000 0.0000 0x00400000 2.2578125 0x10000000 0.2515869140625 0x7fffc000 0.5 0x00400140 0x7fff8000 0 0.00274658203125 360k 0.00274658203125 1250.08386230469 0.0000 
65536 294.223342895508 76.3019714355469 0.0013885498046875 211892.5385 294.223342895508 294.21794128418 0.005401611328125 0.001495361328125 0 0 0.0000 0.0000 0.0000 0.0000 80.3031921386719 76.1694641113281 4.13372802734375 4.12982177734375 2.13125610351562 0 0.0515 0.0514 0.0265 0.0000 6.2703857421875 6.00868225097656 0.261703491210938 0 0 0 0.0417 0.0000 0.0000 0.0000 294.223342895508 294.223175048828 0.0001678466796875 0 0 0 0.0000 0.0000 0.0000 0.0000 80.3031921386719 80.2999420166016 0.0032501220703125 0.0012969970703125 0.0007781982421875 0 0.0000 0.0000 0.0000 0.0000 0x00400000 1.12890625 0x10000000 0.12579345703125 0x7fffc000 0.25 0x00400140 0x7fff8000 0 0.002349853515625 616k 0.002349853515625 1344.50247192383 0.0000 
131072 311.161071777344 79.2719497680664 0.00128173828125 242764.9048 311.161071777344 311.158554077148 0.0025177001953125 0.0005645751953125 0 0 0.0000 0.0000 0.0000 0.0000 83.2725601196289 79.1424331665039 4.130126953125 4.128173828125 2.12889862060547 0 0.0496 0.0496 0.0256 0.0000 6.26154327392578 6.00588226318359 0.255661010742188 0 0 0 0.0408 0.0000 0.0000 0.0000 311.161071777344 311.160987854004 8.392333984375e-05 0 0 0 0.0000 0.0000 0.0000 0.0000 83.2725601196289 83.2406387329102 0.03192138671875 0.03094482421875 0.0162506103515625 0 0.0004 0.0004 0.0002 0.0000 0x00400000 0.564453125 0x10000000 0.062896728515625 0x7fffc000 0.125 0x00400140 0x7fff8000 0 0.0021514892578125 1128k 0.0021514892578125 1414.69076538086 0.0000 
262144 333.140933990479 86.2575607299805 0.00112152099609375 297043.8673 333.140933990479 333.139583587646 0.00135040283203125 0.00037384033203125 0 0 0.0000 0.0000 0.0000 0.0000 90.2578659057617 85.6295204162598 4.62834548950195 4.62736892700195 2.37772369384766 0 0.0513 0.0513 0.0263 0.0000 7.00741958618164 6.75449371337891 0.252925872802734 0 0 0 0.0361 0.0000 0.0000 0.0000 333.140933990479 333.140892028809 4.1961669921875e-05 0 0 0 0.0000 0.0000 0.0000 0.0000 90.2578659057617 90.2217216491699 0.0361442565917969 0.0356559753417969 0.0183982849121094 0 0.0004 0.0004 0.0002 0.0000 0x00400000 0.2822265625 0x10000000 0.0314483642578125 0x7fffc000 0.0625 0x00400140 0x7fff8000 0 0.00205230712890625 2152k 0.00205230712890625 1514.83014678955 0.0000 
524288 350.131635665894 89.2525463104248 0.000782012939453125 447731.2561 350.131635665894 350.131006240845 0.000629425048828125 0.000141143798828125 0 0 0.0000 0.0000 0.0000 0.0000 93.2526988983154 88.6252021789551 4.62749671936035 4.62700843811035 2.37718772888184 0 0.0496 0.0496 0.0255 0.0000 7.00531387329102 5.80602264404297 1.19929122924805 0.949291229248047 0.947174072265625 0 0.1712 0.1355 0.1352 0.0000 350.131635665894 350.131614685059 2.09808349609375e-05 0 0 0 0.0000 0.0000 0.0000 0.0000 93.2526988983154 93.2165470123291 0.0361518859863281 0.0359077453613281 0.0184898376464844 0 0.0004 0.0004 0.0002 0.0000 0x00400000 0.14111328125 0x10000000 0.0157241821289062 0x7fffc000 0.03125 0x00400140 0x7fff8000 0 0.00200271606445312 4200k 0.00200271606445312 1587.90727996826 0.0000 
1048576 372.129017829895 96.2559185028076 0.000455856323242188 816329.6172 372.129017829895 372.128644943237 0.000372886657714844 0.000128746032714844 0 0 0.0000 0.0000 0.0000 0.0000 100.255994796753 95.1278352737427 5.12815952301025 5.12791538238525 2.62763404846191 0 0.0512 0.0511 0.0262 0.0000 7.75616645812988 2.66140270233154 5.09476375579834 4.96976375579834 2.56365585327148 0 0.6569 0.6408 0.3305 0.0000 372.129017829895 372.129007339478 1.04904174804688e-05 0 0 0 0.0000 0.0000 0.0000 0.0000 100.255994796753 100.215923309326 0.0400714874267578 0.0399494171142578 0.0204954147338867 0 0.0004 0.0004 0.0002 0.0000 0x00400000 0.070556640625 0x10000000 0.00786209106445312 0x7fffc000 0.015625 0x00400140 0x7fff8000 0 0.001983642578125 8320k 0.0936069488525391 1689.46573066711 0.0001 
2097152 389.127018451691 99.2530527114868 0.000289440155029297 1344412.6936 389.127018451691 389.12683391571 0.000184535980224609 6.24656677246094e-05 0 0 0.0000 0.0000 0.0000 0.0000 103.253090858459 98.1253232955933 5.12776756286621 5.12764549255371 2.62750577926636 0 0.0497 0.0497 0.0254 0.0000 7.75545787811279 2.64468002319336 5.11077785491943 5.04827785491943 2.59469413757324 0 0.6590 0.6509 0.3346 0.0000 389.127018451691 389.127013206482 5.24520874023438e-06 0 0 0 0.0000 0.0000 0.0000 0.0000 103.253090858459 103.213018417358 0.0400724411010742 0.0400114059448242 0.0205197334289551 0 0.0004 0.0004 0.0002 0.0000 0x00400000 0.0352783203125 0x10000000 0.00393104553222656 0x7fffc000 0.0078125 0x00400140 0x7fff8000 0 0.00197124481201172 16536k 0.049710750579834 1763.2330904007 0.0000 
4194304 411.128880262375 106.251974582672 0.000215053558349609 1911751.1164 411.128880262375 411.12878704071 9.32216644287109e-05 3.21865081787109e-05 0 0 0.0000 0.0000 0.0000 0.0000 110.251993656158 104.624422550201 5.62757110595703 5.62751007080078 2.87743949890137 0 0.0510 0.0510 0.0261 0.0000 8.50510382652283 2.88675880432129 5.61834502220154 5.58709502220154 2.86021566390991 0 0.6606 0.6569 0.3363 0.0000 411.128880262375 411.128877639771 2.62260437011719e-06 0 0 0 0.0000 0.0000 0.0000 0.0000 110.251993656158 110.208011865616 0.0439817905426025 0.0439512729644775 0.0224845409393311 0 0.0004 0.0004 0.0002 0.0000 0x00400000 0.01763916015625 0x10000000 0.00196552276611328 0x7fffc000 0.00390625 0x00400140 0x7fff8000 0 0.00196504592895508 32968k 0.0273652076721191 1865.12892580032 0.0000 
