#set_size_in_keys sim_num_insn sim_num_refs sim_elapsed_time sim_inst_rate il1.accesses il1.hits il1.misses il1.replacements il1.writebacks il1.invalidations il1.miss_rate il1.repl_rate il1.wb_rate il1.inv_rate dl1.accesses dl1.hits dl1.misses dl1.replacements dl1.writebacks dl1.invalidations dl1.miss_rate dl1.repl_rate dl1.wb_rate dl1.inv_rate dl2.accesses dl2.hits dl2.misses dl2.replacements dl2.writebacks dl2.invalidations dl2.miss_rate dl2.repl_rate dl2.wb_rate dl2.inv_rate itlb.accesses itlb.hits itlb.misses itlb.replacements itlb.writebacks itlb.invalidations itlb.miss_rate itlb.repl_rate itlb.wb_rate itlb.inv_rate dtlb.accesses dtlb.hits dtlb.misses dtlb.replacements dtlb.writebacks dtlb.invalidations dtlb.miss_rate dtlb.repl_rate dtlb.wb_rate dtlb.inv_rate ld_text_base ld_text_size ld_data_base ld_data_size ld_stack_base ld_stack_size ld_prog_entry ld_environ_base ld_target_big_endian mem.page_count mem.page_mem mem.ptab_misses mem.ptab_accesses mem.ptab_miss_rate
4096 113.6689453125 29.892822265625 0.001953125 58198.5000 113.6689453125 113.565673828125 0.103271484375 0.040771484375 0 0 0.0009 0.0004 0.0000 0.0000 33.912353515625 33.335205078125 0.5771484375 0.5146484375 0.486083984375 0 0.0170 0.0152 0.0143 0.0000 1.16650390625 0.8349609375 0.33154296875 0 0 0 0.2842 0.0000 0.0000 0.0000 113.6689453125 113.66650390625 0.00244140625 0 0 0 0.0000 0.0000 0.0000 0.0000 33.912353515625 33.909423828125 0.0029296875 0 0 0 0.0001 0.0000 0.0000 0.0000 0x00400000 18.44140625 0x10000000 2.0166015625 0x7fffc000 4 0x00400140 0x7fff8000 0 0.007568359375 124k 0.007568359375 636.82275390625 0.0000 
8192 124.4287109375 31.9317626953125 0.0013427734375 92665.4545 124.4287109375 124.376953125 0.0517578125 0.0205078125 0 0 0.0004 0.0002 0.0000 0.0000 35.9415283203125 35.2779541015625 0.66357421875 0.63232421875 0.570068359375 0 0.0185 0.0176 0.0159 0.0000 1.285400390625 1.0570068359375 0.2283935546875 0 0 0 0.1777 0.0000 0.0000 0.0000 124.4287109375 124.427490234375 0.001220703125 0 0 0 0.0000 0.0000 0.0000 0.0000 35.9415283203125 35.9395751953125 0.001953125 0 0 0 0.0001 0.0000 0.0000 0.0000 0x00400000 9.224609375 0x10000000 1.00830078125 0x7fffc000 2 0x00400140 0x7fff8000 0 0.0042724609375 140k 0.0042724609375 626.782470703125 0.0000 
16384 132.069152832031 33.6754150390625 0.0009765625 135238.8125 132.069152832031 132.043395996094 0.0257568359375 0.0101318359375 0 0 0.0002 0.0001 0.0000 0.0000 37.6802978515625 36.9328002929688 0.74749755859375 0.73187255859375 0.684814453125 0 0.0198 0.0194 0.0182 0.0000 1.45806884765625 1.281982421875 0.17608642578125 0 0 0 0.1208 0.0000 0.0000 0.0000 132.069152832031 132.068542480469 0.0006103515625 0 0 0 0.0000 0.0000 0.0000 0.0000 37.6802978515625 37.6788330078125 0.00146484375 0 0 0 0.0000 0.0000 0.0000 0.0000 0x00400000 4.61328125 0x10000000 0.504150390625 0x7fffc000 1 0x00400140 0x7fff8000 0 0.00262451171875 172k 0.00262451171875 632.2353515625 0.0000 
32768 142.408050537109 35.8126525878906 0.000823974609375 172830.6296 142.408050537109 142.395355224609 0.0126953125 0.0048828125 0 0 0.0001 0.0000 0.0000 0.0000 39.8150939941406 38.8983154296875 0.916778564453125 0.908966064453125 0.834808349609375 0 0.0230 0.0228 0.0210 0.0000 1.7642822265625 1.6138916015625 0.150390625 0 0 0 0.0852 0.0000 0.0000 0.0000 142.408050537109 142.407745361328 0.00030517578125 0 0 0 0.0000 0.0000 0.0000 0.0000 39.8150939941406 39.8138732910156 0.001220703125 0 0 0 0.0000 0.0000 0.0000 0.0000 0x00400000 2.30712890625 0x10000000 0.2520751953125 0x7fffc000 0.5 0x00400140 0x7fff8000 0 0.001800537109375 236k 0.001800537109375 663.564392089844 0.0000 
65536 152.614395141602 38.1317138671875 0.000762939453125 200034.7400 152.614395141602 152.60791015625 0.0064849853515625 0.0025787353515625 0 0 0.0000 0.0000 0.0000 0.0000 42.1329345703125 41.0570373535156 1.07589721679688 1.07199096679688 0.949752807617188 0 0.0255 0.0254 0.0225 0.0000 2.03213500976562 1.89430236816406 0.137832641601562 0 0 0 0.0678 0.0000 0.0000 0.0000 152.614395141602 152.614242553711 0.000152587890625 0 0 0 0.0000 0.0000 0.0000 0.0000 42.1329345703125 42.1318359375 0.0010986328125 0 0 0 0.0000 0.0000 0.0000 0.0000 0x00400000 1.153564453125 0x10000000 0.12603759765625 0x7fffc000 0.25 0x00400140 0x7fff8000 0 0.0013885498046875 364k 0.0013885498046875 701.874450683594 0.0000 
131072 158.387908935547 39.7153549194336 0.00070953369140625 223228.1720 158.387908935547 158.384605407715 0.00330352783203125 0.00135040283203125 0 0 0.0000 0.0000 0.0000 0.0000 43.7159652709961 42.5806732177734 1.13529205322266 1.13333892822266 1.05958557128906 0 0.0260 0.0259 0.0242 0.0000 2.19818115234375 2.06671142578125 0.1314697265625 0 0 0 0.0598 0.0000 0.0000 0.0000 158.387908935547 158.387832641602 7.62939453125e-05 0 0 0 0.0000 0.0000 0.0000 0.0000 43.7159652709961 43.7146911621094 0.00127410888671875 0.00029754638671875 0.00028228759765625 0 0.0000 0.0000 0.0000 0.0000 0x00400000 0.5767822265625 0x10000000 0.063018798828125 0x7fffc000 0.125 0x00400140 0x7fff8000 0 0.00118255615234375 620k 0.00118255615234375 724.559066772461 0.0000 
262144 171.74095916748 42.4144630432129 0.0006561279296875 261749.1977 171.74095916748 171.739307403564 0.00165176391601562 0.000675201416015625 0 0 0.0000 0.0000 0.0000 0.0000 46.4147682189941 45.0317001342773 1.3830680847168 1.3820915222168 1.2357177734375 0 0.0298 0.0298 0.0266 0.0000 2.62043762207031 2.49220275878906 0.12823486328125 0 0 0 0.0489 0.0000 0.0000 0.0000 171.74095916748 171.740921020508 3.814697265625e-05 0 0 0 0.0000 0.0000 0.0000 0.0000 46.4147682189941 46.4114418029785 0.003326416015625 0.002838134765625 0.00283050537109375 0 0.0001 0.0001 0.0001 0.0000 0x00400000 0.28839111328125 0x10000000 0.0315093994140625 0x7fffc000 0.0625 0x00400140 0x7fff8000 0 0.00107955932617188 1132k 0.00107955932617188 781.581123352051 0.0000 
524288 179.478059768677 44.3610591888428 0.000568389892578125 315765.7483 179.478059768677 179.477241516113 0.000818252563476562 0.000329971313476562 0 0 0.0000 0.0000 0.0000 0.0000 48.3612117767334 46.8627986907959 1.4984130859375 1.4979248046875 1.35202980041504 0 0.0310 0.0310 0.0280 0.0000 2.85126113891602 2.72465133666992 0.126609802246094 0 0 0 0.0444 0.0000 0.0000 0.0000 179.478059768677 179.47804069519 1.9073486328125e-05 0 0 0 0.0000 0.0000 0.0000 0.0000 48.3612117767334 48.3568954467773 0.00431632995605469 0.00407218933105469 0.00406837463378906 0 0.0001 0.0001 0.0001 0.0000 0x00400000 0.144195556640625 0x10000000 0.0157546997070312 0x7fffc000 0.03125 0x00400140 0x7fff8000 0 0.00102806091308594 2156k 0.00102806091308594 815.528537750244 0.0000 
1048576 191.039273262024 46.802939414978 0.000396728515625 481536.5312 191.039273262024 191.038860321045 0.000412940979003906 0.000168800354003906 0 0 0.0000 0.0000 0.0000 0.0000 50.8030157089233 49.109992980957 1.69302272796631 1.69277858734131 1.50678634643555 0 0.0333 0.0333 0.0297 0.0000 3.20022201538086 3.04935169219971 0.150870323181152 0.0258703231811523 0.0256567001342773 0 0.0471 0.0081 0.0080 0.0000 191.039273262024 191.039263725281 9.5367431640625e-06 0 0 0 0.0000 0.0000 0.0000 0.0000 50.8030157089233 50.7967195510864 0.00629615783691406 0.00617408752441406 0.00617218017578125 0 0.0001 0.0001 0.0001 0.0000 0x00400000 0.0720977783203125 0x10000000 0.00787734985351562 0x7fffc000 0.015625 0x00400140 0x7fff8000 0 0.00100231170654297 4204k 0.00100231170654297 866.210062026978 0.0000 
2097152 197.798816204071 48.5609765052795 0.000227451324462891 869631.4109 197.798816204071 197.798609733582 0.000206470489501953 8.44001770019531e-05 0 0 0.0000 0.0000 0.0000 0.0000 52.5610146522522 50.7750792503357 1.7859354019165 1.785813331604 1.63537359237671 0 0.0340 0.0340 0.0311 0.0000 3.42151546478271 3.01055335998535 0.410962104797363 0.348462104797363 0.338183403015137 0 0.1201 0.1018 0.0988 0.0000 197.798816204071 197.798811435699 4.76837158203125e-06 0 0 0 0.0000 0.0000 0.0000 0.0000 52.5610146522522 52.5541181564331 0.0068964958190918 0.0068354606628418 0.00683450698852539 0 0.0001 0.0001 0.0001 0.0000 0x00400000 0.0360488891601562 0x10000000 0.00393867492675781 0x7fffc000 0.0078125 0x00400140 0x7fff8000 0 0.000989437103271484 8300k 0.000989437103271484 896.540762901306 0.0000 
4194304 205.39482665062 50.4792776107788 0.000146389007568359 1403075.4772 205.39482665062 205.394726753235 9.98973846435547e-05 3.88622283935547e-05 0 0 0.0000 0.0000 0.0000 0.0000 54.4792966842651 52.5836155414581 1.89568114280701 1.89562010765076 1.75062322616577 0 0.0348 0.0348 0.0321 0.0000 3.64640426635742 3.11544442176819 0.530959844589233 0.499709844589233 0.47874641418457 0 0.1456 0.1370 0.1313 0.0000 205.39482665062 205.394824266434 2.38418579101562e-06 0 0 0 0.0000 0.0000 0.0000 0.0000 54.4792966842651 54.4715538024902 0.00774288177490234 0.00771236419677734 0.00771188735961914 0 0.0001 0.0001 0.0001 0.0000 0x00400000 0.0180244445800781 0x10000000 0.00196933746337891 0x7fffc000 0.00390625 0x00400140 0x7fff8000 0 0.000982999801635742 16492k 0.000982999801635742 930.649634361267 0.0000 
