#set_size_in_keys sim_num_insn sim_num_refs sim_elapsed_time sim_inst_rate il1.accesses il1.hits il1.misses il1.replacements il1.writebacks il1.invalidations il1.miss_rate il1.repl_rate il1.wb_rate il1.inv_rate dl1.accesses dl1.hits dl1.misses dl1.replacements dl1.writebacks dl1.invalidations dl1.miss_rate dl1.repl_rate dl1.wb_rate dl1.inv_rate dl2.accesses dl2.hits dl2.misses dl2.replacements dl2.writebacks dl2.invalidations dl2.miss_rate dl2.repl_rate dl2.wb_rate dl2.inv_rate itlb.accesses itlb.hits itlb.misses itlb.replacements itlb.writebacks itlb.invalidations itlb.miss_rate itlb.repl_rate itlb.wb_rate itlb.inv_rate dtlb.accesses dtlb.hits dtlb.misses dtlb.replacements dtlb.writebacks dtlb.invalidations dtlb.miss_rate dtlb.repl_rate dtlb.wb_rate dtlb.inv_rate ld_text_base ld_text_size ld_data_base ld_data_size ld_stack_base ld_stack_size ld_prog_entry ld_environ_base ld_target_big_endian mem.page_count mem.page_mem mem.ptab_misses mem.ptab_accesses mem.ptab_miss_rate
4096 240.70751953125 45.330322265625 0.00048828125 492969.0000 240.70751953125 240.617919921875 0.089599609375 0.03955078125 0 0 0.0004 0.0002 0.0000 0.0000 49.349853515625 47.768310546875 1.58154296875 1.51904296875 1.4892578125 0 0.0320 0.0308 0.0302 0.0000 3.160400390625 2.85693359375 0.303466796875 0.018310546875 0 0 0.0960 0.0058 0.0000 0.0000 240.70751953125 240.704833984375 0.002685546875 0 0 0 0.0000 0.0000 0.0000 0.0000 49.349853515625 49.34716796875 0.002685546875 0 0 0 0.0001 0.0000 0.0000 0.0000 0x00400000 18.0234375 0x10000000 2.0126953125 0x7fffc000 4 0x00400140 0x7fff8000 0 0.00732421875 120k 0.00732421875 1173.33544921875 0.0000 
8192 270.861694335938 50.540771484375 0.00048828125 554724.7500 270.861694335938 270.81689453125 0.0447998046875 0.0196533203125 0 0 0.0002 0.0001 0.0000 0.0000 54.550537109375 52.521484375 2.029052734375 1.997802734375 1.8662109375 0 0.0372 0.0366 0.0342 0.0000 3.9400634765625 3.7261962890625 0.2138671875 0.0089111328125 0 0 0.0543 0.0023 0.0000 0.0000 270.861694335938 270.8603515625 0.0013427734375 0 0 0 0.0000 0.0000 0.0000 0.0000 54.550537109375 54.5487060546875 0.0018310546875 0 0 0 0.0000 0.0000 0.0000 0.0000 0x00400000 9.015625 0x10000000 1.00634765625 0x7fffc000 2 0x00400140 0x7fff8000 0 0.004150390625 136k 0.004150390625 1248.47412109375 0.0000 
16384 298.221008300781 55.4434204101562 0.0006103515625 488605.3000 298.221008300781 298.197814941406 0.023193359375 0.0103759765625 0 0 0.0001 0.0000 0.0000 0.0000 59.4483032226562 56.8525390625 2.59576416015625 2.58013916015625 2.341552734375 0 0.0437 0.0434 0.0394 0.0000 4.96051025390625 4.79052734375 0.16998291015625 0.00433349609375 0 0 0.0343 0.0009 0.0000 0.0000 298.221008300781 298.220336914062 0.00067138671875 0 0 0 0.0000 0.0000 0.0000 0.0000 59.4483032226562 59.4468994140625 0.00140380859375 0 0 0 0.0000 0.0000 0.0000 0.0000 0x00400000 4.5087890625 0x10000000 0.503173828125 0x7fffc000 1 0x00400140 0x7fff8000 0 0.0025634765625 168k 0.0025634765625 1339.74963378906 0.0000 
32768 323.352569580078 60.0536193847656 0.0006103515625 529780.8500 323.352569580078 323.34130859375 0.011260986328125 0.00494384765625 0 0 0.0000 0.0000 0.0000 0.0000 64.0560607910156 60.9889831542969 3.06707763671875 3.05926513671875 2.72894287109375 0 0.0479 0.0478 0.0426 0.0000 5.80728149414062 5.6600341796875 0.147247314453125 0.002197265625 0 0 0.0254 0.0004 0.0000 0.0000 323.352569580078 323.352233886719 0.000335693359375 0 0 0 0.0000 0.0000 0.0000 0.0000 64.0560607910156 64.0548706054688 0.001190185546875 0 0 0 0.0000 0.0000 0.0000 0.0000 0x00400000 2.2548828125 0x10000000 0.2515869140625 0x7fffc000 0.5 0x00400140 0x7fff8000 0 0.00177001953125 232k 0.00177001953125 1435.50982666016 0.0000 
65536 346.406448364258 63.8568420410156 0.0006561279296875 527955.6512 346.406448364258 346.400817871094 0.0056304931640625 0.002471923828125 0 0 0.0000 0.0000 0.0000 0.0000 67.8580627441406 64.24609375 3.61196899414062 3.60806274414062 3.15211486816406 0 0.0532 0.0532 0.0465 0.0000 6.76971435546875 6.63359069824219 0.136123657226562 0.0010986328125 0 0 0.0201 0.0002 0.0000 0.0000 346.406448364258 346.406280517578 0.0001678466796875 0 0 0 0.0000 0.0000 0.0000 0.0000 67.8580627441406 67.8569793701172 0.0010833740234375 0 0 0 0.0000 0.0000 0.0000 0.0000 0x00400000 1.12744140625 0x10000000 0.12579345703125 0x7fffc000 0.25 0x00400140 0x7fff8000 0 0.001373291015625 360k 0.001373291015625 1528.33563232422 0.0000 
131072 375.842018127441 69.2431793212891 0.000701904296875 535460.4891 375.842018127441 375.839202880859 0.00281524658203125 0.0012359619140625 0 0 0.0000 0.0000 0.0000 0.0000 73.2437896728516 68.9448394775391 4.2989501953125 4.2969970703125 3.71607208251953 0 0.0587 0.0587 0.0507 0.0000 8.01783752441406 7.88727569580078 0.130561828613281 0.00054931640625 0 0 0.0163 0.0001 0.0000 0.0000 375.842018127441 375.841934204102 8.392333984375e-05 0 0 0 0.0000 0.0000 0.0000 0.0000 73.2437896728516 73.2422409057617 0.00154876708984375 0.00057220458984375 0.00055694580078125 0 0.0000 0.0000 0.0000 0.0000 0x00400000 0.563720703125 0x10000000 0.062896728515625 0x7fffc000 0.125 0x00400140 0x7fff8000 0 0.0011749267578125 616k 0.0011749267578125 1653.35250854492 0.0000 
262144 387.343677520752 71.6503562927246 0.000732421875 528853.2344 387.343677520752 387.342269897461 0.00140762329101562 0.00061798095703125 0 0 0.0000 0.0000 0.0000 0.0000 75.6506614685059 70.8291778564453 4.82148361206055 4.82050704956055 4.15275573730469 0 0.0637 0.0637 0.0549 0.0000 8.97564697265625 8.84786605834961 0.127780914306641 0.000274658203125 0 0 0.0142 0.0000 0.0000 0.0000 387.343677520752 387.343635559082 4.1961669921875e-05 0 0 0 0.0000 0.0000 0.0000 0.0000 75.6506614685059 75.6305770874023 0.0200843811035156 0.0195960998535156 0.019287109375 0 0.0003 0.0003 0.0003 0.0000 0x00400000 0.2818603515625 0x10000000 0.0314483642578125 0x7fffc000 0.0625 0x00400140 0x7fff8000 0 0.00107574462890625 1128k 0.00107574462890625 1702.42446136475 0.0000 
524288 416.340074539185 76.9782104492188 0.00078582763671875 529810.9345 416.340074539185 416.339370727539 0.000703811645507812 0.000308990478515625 0 0 0.0000 0.0000 0.0000 0.0000 80.9783630371094 75.4549312591553 5.5234317779541 5.5229434967041 4.72842979431152 0 0.0682 0.0682 0.0584 0.0000 10.2525653839111 10.1261749267578 0.12639045715332 0.0001373291015625 0 0 0.0123 0.0000 0.0000 0.0000 416.340074539185 416.34005355835 2.09808349609375e-05 0 0 0 0.0000 0.0000 0.0000 0.0000 80.9783630371094 80.9498023986816 0.0285606384277344 0.0283164978027344 0.0272617340087891 0 0.0004 0.0003 0.0003 0.0000 0x00400000 0.14093017578125 0x10000000 0.0157241821289062 0x7fffc000 0.03125 0x00400140 0x7fff8000 0 0.00102615356445312 2152k 0.00102615356445312 1828.19123840332 0.0000 
1048576 441.764039993286 81.7131023406982 0.000838279724121094 526988.8168 441.764039993286 441.763688087463 0.000351905822753906 0.000154495239257812 0 0 0.0000 0.0000 0.0000 0.0000 85.7131786346436 79.6078939437866 6.10528469085693 6.10504055023193 5.21780681610107 0 0.0712 0.0712 0.0609 0.0000 11.3234434127808 11.1976766586304 0.125766754150391 0.000766754150390625 0.0006103515625 0 0.0111 0.0001 0.0001 0.0000 441.764039993286 441.764029502869 1.04904174804688e-05 0 0 0 0.0000 0.0000 0.0000 0.0000 85.7131786346436 85.5708827972412 0.142295837402344 0.142173767089844 0.12161922454834 0 0.0017 0.0017 0.0014 0.0000 0x00400000 0.070465087890625 0x10000000 0.00786209106445312 0x7fffc000 0.015625 0x00400140 0x7fff8000 0 0.00100135803222656 4200k 0.00100135803222656 1938.91962432861 0.0000 
2097152 475.555016040802 87.8437151908875 0.000904560089111328 525730.7080 475.555016040802 475.554840087891 0.000175952911376953 7.72476196289062e-05 0 0 0.0000 0.0000 0.0000 0.0000 91.8437533378601 85.009458065033 6.83429527282715 6.83417320251465 5.82151365280151 0 0.0744 0.0744 0.0634 0.0000 12.65598487854 10.1871476173401 2.46883726119995 2.40633726119995 2.38177967071533 0 0.1951 0.1901 0.1882 0.0000 475.555016040802 475.555010795593 5.24520874023438e-06 0 0 0 0.0000 0.0000 0.0000 0.0000 91.8437533378601 91.7971134185791 0.0466399192810059 0.0465788841247559 0.0438313484191895 0 0.0005 0.0005 0.0005 0.0000 0x00400000 0.0352325439453125 0x10000000 0.00393104553222656 0x7fffc000 0.0078125 0x00400140 0x7fff8000 0 0.000988960266113281 8296k 0.000988960266113281 2086.12612438202 0.0000 
4194304 494.917925596237 91.5702593326569 0.000583648681640625 847972.3182 494.917925596237 494.917837619781 8.79764556884766e-05 3.86238098144531e-05 0 0 0.0000 0.0000 0.0000 0.0000 95.5702784061432 88.1176524162292 7.45262598991394 7.45256495475769 6.33372592926025 0 0.0780 0.0780 0.0663 0.0000 13.7864398956299 10.8007366657257 2.98570322990417 2.95445322990417 2.82209253311157 0 0.2166 0.2143 0.2047 0.0000 494.917925596237 494.917922973633 2.62260437011719e-06 0 0 0 0.0000 0.0000 0.0000 0.0000 95.5702784061432 95.5138185024261 0.056459903717041 0.056429386138916 0.0526959896087646 0 0.0006 0.0006 0.0006 0.0000 0x00400000 0.0176162719726562 0x10000000 0.00196552276611328 0x7fffc000 0.00390625 0x00400140 0x7fff8000 0 0.000982761383056641 16488k 0.000982761383056641 2170.92153596878 0.0000 
