#set_size_in_keys sim_num_insn sim_num_refs sim_elapsed_time sim_inst_rate il1.accesses il1.hits il1.misses il1.replacements il1.writebacks il1.invalidations il1.miss_rate il1.repl_rate il1.wb_rate il1.inv_rate dl1.accesses dl1.hits dl1.misses dl1.replacements dl1.writebacks dl1.invalidations dl1.miss_rate dl1.repl_rate dl1.wb_rate dl1.inv_rate dl2.accesses dl2.hits dl2.misses dl2.replacements dl2.writebacks dl2.invalidations dl2.miss_rate dl2.repl_rate dl2.wb_rate dl2.inv_rate itlb.accesses itlb.hits itlb.misses itlb.replacements itlb.writebacks itlb.invalidations itlb.miss_rate itlb.repl_rate itlb.wb_rate itlb.inv_rate dtlb.accesses dtlb.hits dtlb.misses dtlb.replacements dtlb.writebacks dtlb.invalidations dtlb.miss_rate dtlb.repl_rate dtlb.wb_rate dtlb.inv_rate ld_text_base ld_text_size ld_data_base ld_data_size ld_stack_base ld_stack_size ld_prog_entry ld_environ_base ld_target_big_endian mem.page_count mem.page_mem mem.ptab_misses mem.ptab_accesses mem.ptab_miss_rate
4096 15900.9565429688 4099.88891601562 0.0087890625 1809175.5000 15900.9565429688 15900.8676757812 0.0888671875 0.038818359375 0 0 0.0000 0.0000 0.0000 0.0000 4103.90844726562 3972.13452148438 131.77392578125 131.71142578125 1.03076171875 0 0.0321 0.0321 0.0003 0.0000 132.8935546875 132.590576171875 0.302978515625 0.018310546875 0 0 0.0023 0.0001 0.0000 0.0000 15900.9565429688 15900.9538574219 0.002685546875 0 0 0 0.0000 0.0000 0.0000 0.0000 4103.90844726562 4103.90576171875 0.002685546875 0 0 0 0.0000 0.0000 0.0000 0.0000 0x00400000 18.0234375 0x10000000 2.0126953125 0x7fffc000 4 0x00400140 0x7fff8000 0 0.00732421875 120k 0.00732421875 71923.44921875 0.0000 
8192 31773.0256347656 8195.44445800781 0.0174560546875 1820172.2098 31773.0256347656 31772.9810791016 0.0445556640625 0.0194091796875 0 0 0.0000 0.0000 0.0000 0.0000 8199.45422363281 7737.51611328125 461.938110351562 461.906860351562 1.584228515625 0 0.0563 0.0563 0.0002 0.0000 463.56689453125 463.353149414062 0.2137451171875 0.0089111328125 0 0 0.0005 0.0000 0.0000 0.0000 31773.0256347656 31773.0242919922 0.0013427734375 0 0 0 0.0000 0.0000 0.0000 0.0000 8199.45422363281 8199.45239257812 0.0018310546875 0 0 0 0.0000 0.0000 0.0000 0.0000 0x00400000 9.015625 0x10000000 1.00634765625 0x7fffc000 2 0x00400140 0x7fff8000 0 0.004150390625 136k 0.004150390625 143546.9375 0.0000 
16384 63517.239074707 16387.2222290039 0.0352783203125 1800460.9775 63517.239074707 63517.2160644531 0.02301025390625 0.01019287109375 0 0 0.0000 0.0000 0.0000 0.0000 16391.2271118164 15360.6451416016 1030.58197021484 1030.56634521484 1.8526611328125 0 0.0629 0.0629 0.0001 0.0000 1032.45764160156 1032.28778076172 0.16986083984375 0.00433349609375 0 0 0.0002 0.0000 0.0000 0.0000 63517.239074707 63517.2384033203 0.00067138671875 0 0 0 0.0000 0.0000 0.0000 0.0000 16391.2271118164 16391.2257080078 0.00140380859375 0 0 0 0.0000 0.0000 0.0000 0.0000 0x00400000 4.5087890625 0x10000000 0.503173828125 0x7fffc000 1 0x00400140 0x7fff8000 0 0.0025634765625 168k 0.0025634765625 286879.379638672 0.0000 
32768 127005.646850586 32771.111114502 0.070556640625 1800052.3512 127005.646850586 127005.635681152 0.01116943359375 0.004852294921875 0 0 0.0000 0.0000 0.0000 0.0000 32775.1135559082 30649.5788269043 2125.53472900391 2125.52691650391 1.98867797851562 0 0.0649 0.0649 0.0001 0.0000 2127.53457641602 2127.38739013672 0.147186279296875 0.002197265625 0 0 0.0001 0.0000 0.0000 0.0000 127005.646850586 127005.646514893 0.000335693359375 0 0 0 0.0000 0.0000 0.0000 0.0000 32775.1135559082 32775.1123657227 0.001190185546875 0 0 0 0.0000 0.0000 0.0000 0.0000 0x00400000 2.2548828125 0x10000000 0.2515869140625 0x7fffc000 0.5 0x00400140 0x7fff8000 0 0.00177001953125 232k 0.00177001953125 573586.802001953 0.0000 
65536 253982.154968262 65539.055557251 0.0613555908203125 4139511.1932 253982.154968262 253982.149383545 0.005584716796875 0.0024261474609375 0 0 0.0000 0.0000 0.0000 0.0000 65543.0567779541 61246.418258667 4296.63851928711 4296.63461303711 2.05702209472656 0 0.0656 0.0656 0.0000 0.0000 4298.70112609863 4298.56503295898 0.136093139648438 0.0010986328125 0 0 0.0000 0.0000 0.0000 0.0000 253982.154968262 253982.154800415 0.0001678466796875 0 0 0 0.0000 0.0000 0.0000 0.0000 65543.0567779541 65543.0556945801 0.0010833740234375 0 0 0 0.0000 0.0000 0.0000 0.0000 0x00400000 1.12744140625 0x10000000 0.12579345703125 0x7fffc000 0.25 0x00400140 0x7fff8000 0 0.001373291015625 360k 0.001373291015625 1147021.72714233 0.0000 
