#set_size_in_keys sim_num_insn sim_num_refs sim_elapsed_time sim_inst_rate sim_num_branches sim_IPB bpred_2lev.lookups bpred_2lev.updates bpred_2lev.addr_hits bpred_2lev.dir_hits bpred_2lev.misses bpred_2lev.jr_hits bpred_2lev.jr_seen bpred_2lev.jr_non_ras_hits.PP bpred_2lev.jr_non_ras_seen.PP bpred_2lev.bpred_addr_rate bpred_2lev.bpred_dir_rate bpred_2lev.bpred_jr_rate bpred_2lev.bpred_jr_non_ras_rate.PP bpred_2lev.retstack_pushes bpred_2lev.retstack_pops bpred_2lev.used_ras.PP bpred_2lev.ras_hits.PP bpred_2lev.ras_rate.PP
4096 219.8154296875 47.149169921875 0.000244140625 900364.0000 35.490478515625 6.1936 35.490478515625 35.490478515625 27.380126953125 27.409912109375 8.08056640625 0.013427734375 0.013671875 0 0 0.7715 0.7723 0.9821 <error: 0.01416015625 0.013671875 0.013671875 0.013427734375 0.9821 
8192 243.421508789062 51.130859375 0.0001220703125 1994109.0000 39.4735107421875 6.1667 39.4735107421875 39.4735107421875 30.5137939453125 30.5277099609375 8.94580078125 0.0067138671875 0.0068359375 0 0 0.7730 0.7734 0.9821 <error: 0.007080078125 0.0068359375 0.0068359375 0.0067138671875 0.9821 
16384 278.366088867188 56.2092895507812 6.103515625e-05 4560750.0000 45.4146118164062 6.1294 45.4146118164062 45.4146118164062 35.1728515625 35.179931640625 10.2346801757812 0.00335693359375 0.00341796875 0 0 0.7745 0.7746 0.9821 <error: 0.0035400390625 0.00341796875 0.00341796875 0.00335693359375 0.9821 
32768 303.868438720703 60.7448425292969 3.0517578125e-05 9957161.0000 49.6866149902344 6.1157 49.6866149902344 49.6866149902344 38.5582580566406 38.5618896484375 11.1247253417969 0.001678466796875 0.001708984375 0 0 0.7760 0.7761 0.9821 <error: 0.00177001953125 0.001708984375 0.001708984375 0.001678466796875 0.9821 
65536 324.234024047852 70.6089172363281 4.57763671875e-05 7083000.3333 52.4937438964844 6.1766 52.4937438964844 52.4937438964844 41.2369995117188 41.2387847900391 11.2549591064453 0.0008392333984375 0.0008544921875 0 0 0.7856 0.7856 0.9821 <error: 0.000885009765625 0.0008544921875 0.0008544921875 0.0008392333984375 0.9821 
131072 361.584411621094 77.4178695678711 4.57763671875e-05 7898932.0000 58.7116775512695 6.1586 58.7116775512695 58.7116775512695 46.2479782104492 46.2488555908203 12.4628219604492 0.00041961669921875 0.00042724609375 0 0 0.7877 0.7877 0.9821 <error: 0.0004425048828125 0.00042724609375 0.00042724609375 0.00041961669921875 0.9821 
262144 371.939960479736 76.6944198608398 0.000335693359375 1107975.3295 60.7059936523438 6.1269 60.7059936523438 60.7059936523438 47.4002418518066 47.4007034301758 13.305290222168 0.000209808349609375 0.000213623046875 0 0 0.7808 0.7808 0.9821 <error: 0.00022125244140625 0.000213623046875 0.000213623046875 0.000209808349609375 0.9821 
524288 399.680500030518 81.1172027587891 4.9591064453125e-05 8059526.5385 65.393238067627 6.1120 65.393238067627 65.393238067627 50.8763256072998 50.8765544891357 14.5166835784912 0.000104904174804688 0.0001068115234375 0 0 0.7780 0.7780 0.9821 <error: 0.000110626220703125 0.0001068115234375 0.0001068115234375 0.000104904174804688 0.9821 
1048576 423.871543884277 84.3878154754639 0.000385284423828125 1100152.2970 69.5398025512695 6.0954 69.5398025512695 69.5398025512695 53.9587001800537 53.9588212966919 15.5809812545776 5.24520874023438e-05 5.340576171875e-05 0 0 0.7759 0.7759 0.9821 <error: 5.53131103515625e-05 5.340576171875e-05 5.340576171875e-05 5.24520874023438e-05 0.9821 
2097152 455.223992347717 91.094021320343 5.67436218261719e-05 8022469.7983 74.676082611084 6.0960 74.676082611084 74.676082611084 58.0447845458984 58.0448398590088 16.6312427520752 2.62260437011719e-05 2.6702880859375e-05 0 0 0.7773 0.7773 0.9821 <error: 2.76565551757812e-05 2.6702880859375e-05 2.6702880859375e-05 2.62260437011719e-05 0.9821 
4194304 475.163735151291 92.0518789291382 0.000424861907958984 1118395.7099 78.2598836421967 6.0716 78.2598836421967 78.2598836421967 60.5859003067017 60.585928440094 17.6739552021027 1.31130218505859e-05 1.33514404296875e-05 0 0 0.7742 0.7742 0.9821 <error: 1.38282775878906e-05 1.33514404296875e-05 1.33514404296875e-05 1.31130218505859e-05 0.9821 
