#set_size_in_keys sim_num_insn sim_num_refs sim_elapsed_time sim_inst_rate il1.accesses il1.hits il1.misses il1.replacements il1.writebacks il1.invalidations il1.miss_rate il1.repl_rate il1.wb_rate il1.inv_rate dl1.accesses dl1.hits dl1.misses dl1.replacements dl1.writebacks dl1.invalidations dl1.miss_rate dl1.repl_rate dl1.wb_rate dl1.inv_rate dl2.accesses dl2.hits dl2.misses dl2.replacements dl2.writebacks dl2.invalidations dl2.miss_rate dl2.repl_rate dl2.wb_rate dl2.inv_rate itlb.accesses itlb.hits itlb.misses itlb.replacements itlb.writebacks itlb.invalidations itlb.miss_rate itlb.repl_rate itlb.wb_rate itlb.inv_rate dtlb.accesses dtlb.hits dtlb.misses dtlb.replacements dtlb.writebacks dtlb.invalidations dtlb.miss_rate dtlb.repl_rate dtlb.wb_rate dtlb.inv_rate ld_text_base ld_text_size ld_data_base ld_data_size ld_stack_base ld_stack_size ld_prog_entry ld_environ_base ld_target_big_endian mem.page_count mem.page_mem mem.ptab_misses mem.ptab_accesses mem.ptab_miss_rate
4096 113.750244140625 29.92529296875 0.0009765625 116480.2500 113.750244140625 113.645263671875 0.10498046875 0.04248046875 0 0 0.0009 0.0004 0.0000 0.0000 33.94482421875 33.3583984375 0.58642578125 0.52392578125 0.495361328125 0 0.0173 0.0154 0.0146 0.0000 1.186767578125 0.849609375 0.337158203125 0 0 0 0.2841 0.0000 0.0000 0.0000 113.750244140625 113.747314453125 0.0029296875 0 0 0 0.0000 0.0000 0.0000 0.0000 33.94482421875 33.94189453125 0.0029296875 0 0 0 0.0001 0.0000 0.0000 0.0000 0x00400000 19.7421875 0x10000000 2.0205078125 0x7fffc000 4 0x00400140 0x7fff8000 0 0.0078125 128k 0.0078125 645.02734375 0.0000 
8192 124.469360351562 31.947998046875 0.0006103515625 203930.6000 124.469360351562 124.416748046875 0.0526123046875 0.0213623046875 0 0 0.0004 0.0002 0.0000 0.0000 35.957763671875 35.28955078125 0.668212890625 0.636962890625 0.57470703125 0 0.0186 0.0177 0.0160 0.0000 1.2955322265625 1.0643310546875 0.231201171875 0 0 0 0.1785 0.0000 0.0000 0.0000 124.469360351562 124.467895507812 0.00146484375 0 0 0 0.0000 0.0000 0.0000 0.0000 35.957763671875 35.955810546875 0.001953125 0 0 0 0.0001 0.0000 0.0000 0.0000 0x00400000 9.875 0x10000000 1.01025390625 0x7fffc000 2 0x00400140 0x7fff8000 0 0.00439453125 144k 0.00439453125 630.884765625 0.0000 
16384 132.080688476562 33.6801147460938 0.00054931640625 240445.5556 132.080688476562 132.054138183594 0.02655029296875 0.01092529296875 0 0 0.0002 0.0001 0.0000 0.0000 37.6849975585938 36.9361572265625 0.74884033203125 0.73321533203125 0.6861572265625 0 0.0199 0.0195 0.0182 0.0000 1.4615478515625 1.2840576171875 0.177490234375 0 0 0 0.1214 0.0000 0.0000 0.0000 132.080688476562 132.079956054688 0.000732421875 0 0 0 0.0000 0.0000 0.0000 0.0000 37.6849975585938 37.6835327148438 0.00146484375 0 0 0 0.0000 0.0000 0.0000 0.0000 0x00400000 4.9384765625 0x10000000 0.505126953125 0x7fffc000 1 0x00400140 0x7fff8000 0 0.002685546875 176k 0.002685546875 634.244506835938 0.0000 
32768 142.413818359375 35.8150024414062 0.00042724609375 333329.7143 142.413818359375 142.400939941406 0.01287841796875 0.00506591796875 0 0 0.0001 0.0000 0.0000 0.0000 39.8174438476562 38.8999938964844 0.917449951171875 0.909637451171875 0.835479736328125 0 0.0230 0.0228 0.0210 0.0000 1.76580810546875 1.61495971679688 0.150848388671875 0 0 0 0.0854 0.0000 0.0000 0.0000 142.413818359375 142.413452148438 0.0003662109375 0 0 0 0.0000 0.0000 0.0000 0.0000 39.8174438476562 39.8162231445312 0.001220703125 0 0 0 0.0000 0.0000 0.0000 0.0000 0x00400000 2.4697265625 0x10000000 0.2525634765625 0x7fffc000 0.5 0x00400140 0x7fff8000 0 0.0018310546875 240k 0.0018310546875 664.568969726562 0.0000 
65536 152.617279052734 38.1328887939453 0.000396728515625 384689.4615 152.617279052734 152.610687255859 0.006591796875 0.002685546875 0 0 0.0000 0.0000 0.0000 0.0000 42.1341094970703 41.0578765869141 1.07623291015625 1.07232666015625 0.950088500976562 0 0.0255 0.0255 0.0225 0.0000 2.03291320800781 1.89485168457031 0.1380615234375 0 0 0 0.0679 0.0000 0.0000 0.0000 152.617279052734 152.617095947266 0.00018310546875 0 0 0 0.0000 0.0000 0.0000 0.0000 42.1341094970703 42.1330108642578 0.0010986328125 0 0 0 0.0000 0.0000 0.0000 0.0000 0x00400000 1.23486328125 0x10000000 0.12628173828125 0x7fffc000 0.25 0x00400140 0x7fff8000 0 0.00140380859375 368k 0.00140380859375 702.376739501953 0.0000 
131072 158.389350891113 39.7159423828125 0.00035858154296875 441710.8298 158.389350891113 158.38599395752 0.00335693359375 0.00140380859375 0 0 0.0000 0.0000 0.0000 0.0000 43.716552734375 42.5810928344727 1.13545989990234 1.13350677490234 1.05975341796875 0 0.0260 0.0259 0.0242 0.0000 2.19857025146484 2.06697845458984 0.131591796875 0 0 0 0.0599 0.0000 0.0000 0.0000 158.389350891113 158.389259338379 9.1552734375e-05 0 0 0 0.0000 0.0000 0.0000 0.0000 43.716552734375 43.7152786254883 0.00127410888671875 0.00029754638671875 0.00028228759765625 0 0.0000 0.0000 0.0000 0.0000 0x00400000 0.617431640625 0x10000000 0.063140869140625 0x7fffc000 0.125 0x00400140 0x7fff8000 0 0.001190185546875 624k 0.001190185546875 724.810211181641 0.0000 
262144 171.741680145264 42.4147567749023 0.000308990478515625 555815.4444 171.741680145264 171.740001678467 0.001678466796875 0.000701904296875 0 0 0.0000 0.0000 0.0000 0.0000 46.4150619506836 45.031909942627 1.38315200805664 1.38217544555664 1.23580169677734 0 0.0298 0.0298 0.0266 0.0000 2.62063217163086 2.49233627319336 0.1282958984375 0 0 0 0.0490 0.0000 0.0000 0.0000 171.741680145264 171.741634368896 4.57763671875e-05 0 0 0 0.0000 0.0000 0.0000 0.0000 46.4150619506836 46.411735534668 0.003326416015625 0.002838134765625 0.00283050537109375 0 0.0001 0.0001 0.0001 0.0000 0x00400000 0.3087158203125 0x10000000 0.0315704345703125 0x7fffc000 0.0625 0x00400140 0x7fff8000 0 0.0010833740234375 1136k 0.0010833740234375 781.706695556641 0.0000 
524288 179.478420257568 44.3612060546875 0.00022125244140625 811192.9483 179.478420257568 179.477586746216 0.000833511352539062 0.000345230102539062 0 0 0.0000 0.0000 0.0000 0.0000 48.3613586425781 46.8629035949707 1.49845504760742 1.49796676635742 1.35207176208496 0 0.0310 0.0310 0.0280 0.0000 2.85136032104492 2.68489646911621 0.166463851928711 0.0414638519287109 0.0410289764404297 0 0.0584 0.0145 0.0144 0.0000 179.478420257568 179.478397369385 2.288818359375e-05 0 0 0 0.0000 0.0000 0.0000 0.0000 48.3613586425781 48.3570423126221 0.00431632995605469 0.00407218933105469 0.00406837463378906 0 0.0001 0.0001 0.0001 0.0000 0x00400000 0.15435791015625 0x10000000 0.0157852172851562 0x7fffc000 0.03125 0x00400140 0x7fff8000 0 0.00102996826171875 2160k 0.00102996826171875 815.591323852539 0.0000 
1048576 191.03945350647 46.8030128479004 0.000141143798828125 1353509.3649 191.03945350647 191.039033889771 0.00041961669921875 0.00017547607421875 0 0 0.0000 0.0000 0.0000 0.0000 50.8030891418457 49.1100454330444 1.69304370880127 1.69279956817627 1.50680732727051 0 0.0333 0.0333 0.0297 0.0000 3.200270652771 2.8049955368042 0.395275115966797 0.332775115966797 0.316704750061035 0 0.1235 0.1040 0.0990 0.0000 191.03945350647 191.039442062378 1.1444091796875e-05 0 0 0 0.0000 0.0000 0.0000 0.0000 50.8030891418457 50.7967929840088 0.00629615783691406 0.00617408752441406 0.00617218017578125 0 0.0001 0.0001 0.0001 0.0000 0x00400000 0.077178955078125 0x10000000 0.00789260864257812 0x7fffc000 0.015625 0x00400140 0x7fff8000 0 0.00100326538085938 4208k 0.00100326538085938 866.241455078125 0.0000 
2097152 290.054092884064 67.878707408905 0.000128746032714844 2252916.7444 290.054092884064 290.053762435913 0.000330448150634766 0.000208377838134766 0 0 0.0000 0.0000 0.0000 0.0000 71.8787460327148 69.9842190742493 1.89452695846558 1.89440488815308 1.53968286514282 0 0.0264 0.0264 0.0214 0.0000 3.43454027175903 2.76589250564575 0.668647766113281 0.637397766113281 0.399011611938477 0 0.1947 0.1856 0.1162 0.0000 290.054092884064 290.054087162018 5.7220458984375e-06 0 0 0 0.0000 0.0000 0.0000 0.0000 71.8787460327148 71.8715019226074 0.00724411010742188 0.00718307495117188 0.00619792938232422 0 0.0001 0.0001 0.0001 0.0000 0x00400000 0.0385894775390625 0x10000000 0.00394630432128906 0x7fffc000 0.0078125 0x00400140 0x7fff8000 0 0.00197792053222656 16592k 0.0107583999633789 1304.21259498596 0.0000 
4194304 337.634333848953 77.6275675296783 0.000121116638183594 2787679.2067 337.634333848953 337.634167909622 0.000165939331054688 0.000104904174804688 0 0 0.0000 0.0000 0.0000 0.0000 81.6275868415833 79.5000958442688 2.12749099731445 2.1274299621582 1.7599573135376 0 0.0261 0.0261 0.0216 0.0000 3.88761425018311 2.92928123474121 0.958333015441895 0.942708015441895 0.690958738327026 0 0.2465 0.2425 0.1777 0.0000 337.634333848953 337.63433098793 2.86102294921875e-06 0 0 0 0.0000 0.0000 0.0000 0.0000 81.6275868415833 81.6179053783417 0.00968146324157715 0.00965094566345215 0.0086665153503418 0 0.0001 0.0001 0.0001 0.0000 0x00400000 0.0192947387695312 0x10000000 0.00197315216064453 0x7fffc000 0.00390625 0x00400140 0x7fff8000 0 0.00197100639343262 33068k 0.00831055641174316 1513.91187477112 0.0000 
