#set_size_in_keys sim_num_insn sim_num_refs sim_elapsed_time sim_inst_rate il1.accesses il1.hits il1.misses il1.replacements il1.writebacks il1.invalidations il1.miss_rate il1.repl_rate il1.wb_rate il1.inv_rate dl1.accesses dl1.hits dl1.misses dl1.replacements dl1.writebacks dl1.invalidations dl1.miss_rate dl1.repl_rate dl1.wb_rate dl1.inv_rate dl2.accesses dl2.hits dl2.misses dl2.replacements dl2.writebacks dl2.invalidations dl2.miss_rate dl2.repl_rate dl2.wb_rate dl2.inv_rate itlb.accesses itlb.hits itlb.misses itlb.replacements itlb.writebacks itlb.invalidations itlb.miss_rate itlb.repl_rate itlb.wb_rate itlb.inv_rate dtlb.accesses dtlb.hits dtlb.misses dtlb.replacements dtlb.writebacks dtlb.invalidations dtlb.miss_rate dtlb.repl_rate dtlb.wb_rate dtlb.inv_rate ld_text_base ld_text_size ld_data_base ld_data_size ld_stack_base ld_stack_size ld_prog_entry ld_environ_base ld_target_big_endian mem.page_count mem.page_mem mem.ptab_misses mem.ptab_accesses mem.ptab_miss_rate
4096 113.750244140625 29.92529296875 0.000244140625 465921.0000 113.750244140625 113.631591796875 0.11865234375 0.064697265625 0 0 0.0010 0.0006 0.0000 0.0000 33.94482421875 33.36083984375 0.583984375 0.521484375 0.48876953125 0 0.0172 0.0154 0.0144 0.0000 1.19140625 0.84912109375 0.34228515625 0.04150390625 0.02734375 0 0.2873 0.0348 0.0230 0.0000 113.750244140625 113.747314453125 0.0029296875 0 0 0 0.0000 0.0000 0.0000 0.0000 33.94482421875 33.94189453125 0.0029296875 0 0 0 0.0001 0.0000 0.0000 0.0000 0x00400000 19.7421875 0x10000000 2.0205078125 0x7fffc000 4 0x00400140 0x7fff8000 0 0.0078125 128k 0.0078125 645.02734375 0.0000 
8192 124.469360351562 31.947998046875 0.0001220703125 1019653.0000 124.469360351562 124.409912109375 0.0594482421875 0.032470703125 0 0 0.0005 0.0003 0.0000 0.0000 35.957763671875 35.27685546875 0.680908203125 0.649658203125 0.580078125 0 0.0189 0.0181 0.0161 0.0000 1.3204345703125 1.086669921875 0.2337646484375 0.0208740234375 0.0137939453125 0 0.1770 0.0158 0.0104 0.0000 124.469360351562 124.467895507812 0.00146484375 0 0 0 0.0000 0.0000 0.0000 0.0000 35.957763671875 35.955810546875 0.001953125 0 0 0 0.0001 0.0000 0.0000 0.0000 0x00400000 9.875 0x10000000 1.01025390625 0x7fffc000 2 0x00400140 0x7fff8000 0 0.00439453125 144k 0.00439453125 630.884765625 0.0000 
16384 132.080688476562 33.6801147460938 6.103515625e-05 2164010.0000 132.080688476562 132.05029296875 0.0303955078125 0.01702880859375 0 0 0.0002 0.0001 0.0000 0.0000 37.6849975585938 36.9330444335938 0.751953125 0.736328125 0.68365478515625 0 0.0200 0.0195 0.0181 0.0000 1.46600341796875 1.28717041015625 0.1788330078125 0.01092529296875 0.00714111328125 0 0.1220 0.0075 0.0049 0.0000 132.080688476562 132.079956054688 0.000732421875 0 0 0 0.0000 0.0000 0.0000 0.0000 37.6849975585938 37.6835327148438 0.00146484375 0 0 0 0.0000 0.0000 0.0000 0.0000 0x00400000 4.9384765625 0x10000000 0.505126953125 0x7fffc000 1 0x00400140 0x7fff8000 0 0.002685546875 176k 0.002685546875 634.244506835938 0.0000 
32768 142.413818359375 35.8150024414062 3.0517578125e-05 4666616.0000 142.413818359375 142.399230957031 0.01458740234375 0.007843017578125 0 0 0.0001 0.0001 0.0000 0.0000 39.8174438476562 38.8933715820312 0.924072265625 0.916259765625 0.8348388671875 0 0.0232 0.0230 0.0210 0.0000 1.77349853515625 1.62200927734375 0.1514892578125 0.0052490234375 0.00347900390625 0 0.0854 0.0030 0.0020 0.0000 142.413818359375 142.413452148438 0.0003662109375 0 0 0 0.0000 0.0000 0.0000 0.0000 39.8174438476562 39.8162231445312 0.001220703125 0 0 0 0.0000 0.0000 0.0000 0.0000 0x00400000 2.4697265625 0x10000000 0.2525634765625 0x7fffc000 0.5 0x00400140 0x7fff8000 0 0.0018310546875 240k 0.0018310546875 664.568969726562 0.0000 
65536 152.617279052734 38.1328887939453 3.0517578125e-05 5000963.0000 152.617279052734 152.60986328125 0.007415771484375 0.0040435791015625 0 0 0.0000 0.0000 0.0000 0.0000 42.1341094970703 41.0497283935547 1.08438110351562 1.08047485351562 0.949142456054688 0 0.0257 0.0256 0.0225 0.0000 2.04093933105469 1.90255737304688 0.138381958007812 0.00262451171875 0.001739501953125 0 0.0678 0.0013 0.0009 0.0000 152.617279052734 152.617095947266 0.00018310546875 0 0 0 0.0000 0.0000 0.0000 0.0000 42.1341094970703 42.1330108642578 0.0010986328125 0 0 0 0.0000 0.0000 0.0000 0.0000 0x00400000 1.23486328125 0x10000000 0.12628173828125 0x7fffc000 0.25 0x00400140 0x7fff8000 0 0.00140380859375 368k 0.00140380859375 702.376739501953 0.0000 
131072 158.389350891113 39.7159423828125 4.57763671875e-05 3460068.1667 158.389350891113 158.385559082031 0.00379180908203125 0.002105712890625 0 0 0.0000 0.0000 0.0000 0.0000 43.716552734375 42.5695419311523 1.14701080322266 1.14505767822266 1.05982971191406 0 0.0262 0.0262 0.0242 0.0000 2.21063232421875 2.07888031005859 0.131752014160156 0.001312255859375 0.0008697509765625 0 0.0596 0.0006 0.0004 0.0000 158.389350891113 158.389259338379 9.1552734375e-05 0 0 0 0.0000 0.0000 0.0000 0.0000 43.716552734375 43.7152786254883 0.00127410888671875 0.00029754638671875 0.00028228759765625 0 0.0000 0.0000 0.0000 0.0000 0x00400000 0.617431640625 0x10000000 0.063140869140625 0x7fffc000 0.125 0x00400140 0x7fff8000 0 0.001190185546875 624k 0.001190185546875 724.810211181641 0.0000 
262144 171.741680145264 42.4147567749023 4.57763671875e-05 3751754.2500 171.741680145264 171.739784240723 0.00189590454101562 0.0010528564453125 0 0 0.0000 0.0000 0.0000 0.0000 46.4150619506836 45.0215301513672 1.39353179931641 1.39255523681641 1.23308563232422 0 0.0300 0.0300 0.0266 0.0000 2.62851333618164 2.50013732910156 0.128376007080078 0.0006561279296875 0.00043487548828125 0 0.0488 0.0002 0.0002 0.0000 171.741680145264 171.741634368896 4.57763671875e-05 0 0 0 0.0000 0.0000 0.0000 0.0000 46.4150619506836 46.411735534668 0.003326416015625 0.002838134765625 0.00283050537109375 0 0.0001 0.0001 0.0001 0.0000 0x00400000 0.3087158203125 0x10000000 0.0315704345703125 0x7fffc000 0.0625 0x00400140 0x7fff8000 0 0.0010833740234375 1136k 0.0010833740234375 781.706695556641 0.0000 
524288 179.478420257568 44.3612060546875 5.14984130859375e-05 3485125.2593 179.478420257568 179.477478027344 0.000942230224609375 0.000520706176757812 0 0 0.0000 0.0000 0.0000 0.0000 48.3613586425781 46.8485260009766 1.51283264160156 1.51234436035156 1.35140419006348 0 0.0313 0.0313 0.0279 0.0000 2.86517906188965 2.73849678039551 0.126682281494141 0.00032806396484375 0.000217437744140625 0 0.0442 0.0001 0.0001 0.0000 179.478420257568 179.478397369385 2.288818359375e-05 0 0 0 0.0000 0.0000 0.0000 0.0000 48.3613586425781 48.3570423126221 0.00431632995605469 0.00407218933105469 0.00406837463378906 0 0.0001 0.0001 0.0001 0.0000 0x00400000 0.15435791015625 0x10000000 0.0157852172851562 0x7fffc000 0.03125 0x00400140 0x7fff8000 0 0.00102996826171875 2160k 0.00102996826171875 815.591323852539 0.0000 
1048576 191.03945350647 46.8030128479004 5.340576171875e-05 3577131.8929 191.03945350647 191.038979530334 0.000473976135253906 0.000263214111328125 0 0 0.0000 0.0000 0.0000 0.0000 50.8030891418457 49.092622756958 1.7104663848877 1.7102222442627 1.50732612609863 0 0.0337 0.0337 0.0297 0.0000 3.21826648712158 3.0917329788208 0.126533508300781 0.00153350830078125 0.00128459930419922 0 0.0393 0.0005 0.0004 0.0000 191.03945350647 191.039442062378 1.1444091796875e-05 0 0 0 0.0000 0.0000 0.0000 0.0000 50.8030891418457 50.7967929840088 0.00629615783691406 0.00617408752441406 0.00617218017578125 0 0.0001 0.0001 0.0001 0.0000 0x00400000 0.077178955078125 0x10000000 0.00789260864257812 0x7fffc000 0.015625 0x00400140 0x7fff8000 0 0.00100326538085938 4208k 0.00100326538085938 866.241455078125 0.0000 
2097152 290.054092884064 67.878707408905 8.15391540527344e-05 3557236.9649 290.054092884064 290.053722858429 0.000370025634765625 0.000248432159423828 0 0 0.0000 0.0000 0.0000 0.0000 71.8787460327148 67.6983299255371 4.18041610717773 4.18029403686523 2.65814304351807 0 0.0582 0.0582 0.0370 0.0000 6.83892917633057 6.18917608261108 0.649753093719482 0.587253093719482 0.352841377258301 0 0.0950 0.0859 0.0516 0.0000 290.054092884064 290.054087162018 5.7220458984375e-06 0 0 0 0.0000 0.0000 0.0000 0.0000 71.8787460327148 71.8715019226074 0.00724411010742188 0.00718307495117188 0.00619792938232422 0 0.0001 0.0001 0.0001 0.0000 0x00400000 0.0385894775390625 0x10000000 0.00394630432128906 0x7fffc000 0.0078125 0x00400140 0x7fff8000 0 0.00197792053222656 16592k 0.0107583999633789 1304.21259498596 0.0000 
4194304 337.634333848953 77.6275675296783 9.32216644287109e-05 3621844.0844 337.634333848953 337.63414812088 0.000185728073120117 0.000124692916870117 0 0 0.0000 0.0000 0.0000 0.0000 81.6275868415833 78.5084958076477 3.11909103393555 3.1190299987793 2.64005637168884 0 0.0382 0.0382 0.0323 0.0000 5.75933313369751 4.88180780410767 0.877525329589844 0.846275329589844 0.597437143325806 0 0.1524 0.1469 0.1037 0.0000 337.634333848953 337.63433098793 2.86102294921875e-06 0 0 0 0.0000 0.0000 0.0000 0.0000 81.6275868415833 81.6179053783417 0.00968146324157715 0.00965094566345215 0.0086665153503418 0 0.0001 0.0001 0.0001 0.0000 0x00400000 0.0192947387695312 0x10000000 0.00197315216064453 0x7fffc000 0.00390625 0x00400140 0x7fff8000 0 0.00197100639343262 33068k 0.00831055641174316 1513.91187477112 0.0000 
