#set_size_in_keys sim_num_insn sim_num_refs sim_elapsed_time sim_inst_rate il1.accesses il1.hits il1.misses il1.replacements il1.writebacks il1.invalidations il1.miss_rate il1.repl_rate il1.wb_rate il1.inv_rate dl1.accesses dl1.hits dl1.misses dl1.replacements dl1.writebacks dl1.invalidations dl1.miss_rate dl1.repl_rate dl1.wb_rate dl1.inv_rate dl2.accesses dl2.hits dl2.misses dl2.replacements dl2.writebacks dl2.invalidations dl2.miss_rate dl2.repl_rate dl2.wb_rate dl2.inv_rate itlb.accesses itlb.hits itlb.misses itlb.replacements itlb.writebacks itlb.invalidations itlb.miss_rate itlb.repl_rate itlb.wb_rate itlb.inv_rate dtlb.accesses dtlb.hits dtlb.misses dtlb.replacements dtlb.writebacks dtlb.invalidations dtlb.miss_rate dtlb.repl_rate dtlb.wb_rate dtlb.inv_rate ld_text_base ld_text_size ld_data_base ld_data_size ld_stack_base ld_stack_size ld_prog_entry ld_environ_base ld_target_big_endian mem.page_count mem.page_mem mem.ptab_misses mem.ptab_accesses mem.ptab_miss_rate
4096 217.146484375 66.305908203125 0.0048828125 44471.6000 217.146484375 217.043701171875 0.102783203125 0.040283203125 0 0 0.0005 0.0002 0.0000 0.0000 66.322998046875 63.45947265625 2.863525390625 2.801025390625 1.5751953125 0 0.0432 0.0422 0.0238 0.0000 4.54150390625 4.089599609375 0.451904296875 0 0 0 0.0995 0.0000 0.0000 0.0000 217.146484375 217.14453125 0.001953125 0 0 0 0.0000 0.0000 0.0000 0.0000 66.322998046875 66.319580078125 0.00341796875 0 0 0 0.0001 0.0000 0.0000 0.0000 0x00400000 7.26171875 0x10000000 1 0x7fffc000 4 0x00400140 0x7fff8000 0 0.00537109375 88k 0.00537109375 1046.0751953125 0.0000 
8192 234.237670898438 71.856689453125 0.0037841796875 61899.1935 234.237670898438 234.180786132812 0.056884765625 0.025634765625 0 0 0.0002 0.0001 0.0000 0.0000 71.865234375 68.556884765625 3.308349609375 3.277099609375 1.7886962890625 0 0.0460 0.0456 0.0249 0.0000 5.1539306640625 4.801025390625 0.3529052734375 0 0 0 0.0685 0.0000 0.0000 0.0000 234.237670898438 234.236694335938 0.0009765625 0 0 0 0.0000 0.0000 0.0000 0.0000 71.865234375 71.862548828125 0.002685546875 0 0 0 0.0000 0.0000 0.0000 0.0000 0x00400000 3.634765625 0x10000000 0.5 0x7fffc000 2 0x00400140 0x7fff8000 0 0.003662109375 120k 0.003662109375 1103.12622070312 0.0000 
16384 247.230346679688 73.8750610351562 0.003173828125 77896.5769 247.230346679688 247.203430175781 0.02691650390625 0.01129150390625 0 0 0.0001 0.0000 0.0000 0.0000 73.8793334960938 70.5994262695312 3.2799072265625 3.2642822265625 1.76983642578125 0 0.0444 0.0442 0.0240 0.0000 5.07666015625 4.77667236328125 0.29998779296875 0 0 0 0.0591 0.0000 0.0000 0.0000 247.230346679688 247.229858398438 0.00048828125 0 0 0 0.0000 0.0000 0.0000 0.0000 73.8793334960938 73.8770141601562 0.0023193359375 0 0 0 0.0000 0.0000 0.0000 0.0000 0x00400000 1.818359375 0x10000000 0.25 0x7fffc000 1 0x00400140 0x7fff8000 0 0.0028076171875 184k 0.0028076171875 1147.90844726562 0.0000 
32768 265.734771728516 80.136962890625 0.002899169921875 91658.9158 265.734771728516 265.720703125 0.014068603515625 0.006256103515625 0 0 0.0001 0.0000 0.0000 0.0000 80.1390991210938 76.373046875 3.76605224609375 3.75823974609375 2.0106201171875 0 0.0470 0.0469 0.0251 0.0000 5.79074096679688 5.51510620117188 0.275634765625 0 0 0 0.0476 0.0000 0.0000 0.0000 265.734771728516 265.734527587891 0.000244140625 0 0 0 0.0000 0.0000 0.0000 0.0000 80.1390991210938 80.136962890625 0.00213623046875 0 0 0 0.0000 0.0000 0.0000 0.0000 0x00400000 0.91015625 0x10000000 0.125 0x7fffc000 0.5 0x00400140 0x7fff8000 0 0.00238037109375 312k 0.00238037109375 1228.83734130859 0.0000 
65536 279.55729675293 82.5308990478516 0.002655029296875 105293.4885 279.55729675293 279.550537109375 0.0067596435546875 0.0028533935546875 0 0 0.0000 0.0000 0.0000 0.0000 82.5319671630859 78.7730255126953 3.75894165039062 3.75503540039062 2.00592041015625 0 0.0455 0.0455 0.0243 0.0000 5.77162170410156 5.50909423828125 0.262527465820312 0 0 0 0.0455 0.0000 0.0000 0.0000 279.55729675293 279.557174682617 0.0001220703125 0 0 0 0.0000 0.0000 0.0000 0.0000 82.5319671630859 82.5289459228516 0.003021240234375 0.001068115234375 0.0006256103515625 0 0.0000 0.0000 0.0000 0.0000 0x00400000 0.455078125 0x10000000 0.0625 0x7fffc000 0.25 0x00400140 0x7fff8000 0 0.002166748046875 568k 0.002166748046875 1286.10314941406 0.0000 
131072 298.642028808594 89.0118865966797 0.0024566650390625 121564.0000 298.642028808594 298.63850402832 0.0035247802734375 0.0015716552734375 0 0 0.0000 0.0000 0.0000 0.0000 89.0124206542969 84.7569427490234 4.25547790527344 4.25352478027344 2.25360870361328 0 0.0478 0.0478 0.0253 0.0000 6.51261138916016 6.25619506835938 0.256416320800781 0 0 0 0.0394 0.0000 0.0000 0.0000 298.642028808594 298.641967773438 6.103515625e-05 0 0 0 0.0000 0.0000 0.0000 0.0000 89.0124206542969 88.9800643920898 0.0323562622070312 0.0313796997070312 0.0163955688476562 0 0.0004 0.0004 0.0002 0.0000 0x00400000 0.2275390625 0x10000000 0.03125 0x7fffc000 0.125 0x00400140 0x7fff8000 0 0.0020599365234375 1080k 0.0020599365234375 1373.99797058105 0.0000 
262144 312.547954559326 91.4738807678223 0.002105712890625 148428.5707 312.547954559326 312.546264648438 0.00168991088867188 0.000713348388671875 0 0 0.0000 0.0000 0.0000 0.0000 91.4741477966309 87.2204475402832 4.25370025634766 4.25272369384766 2.25244140625 0 0.0465 0.0465 0.0246 0.0000 6.50783157348633 6.25469970703125 0.253131866455078 0 0 0 0.0389 0.0000 0.0000 0.0000 312.547954559326 312.547924041748 3.0517578125e-05 0 0 0 0.0000 0.0000 0.0000 0.0000 91.4741477966309 91.4408302307129 0.0333175659179688 0.0328292846679688 0.0173988342285156 0 0.0004 0.0004 0.0002 0.0000 0x00400000 0.11376953125 0x10000000 0.015625 0x7fffc000 0.0625 0x00400140 0x7fff8000 0 0.00200653076171875 2104k 0.00200653076171875 1433.84262084961 0.0000 
524288 331.514713287354 97.9570465087891 0.00147438049316406 224850.1759 331.514713287354 331.513832092285 0.000881195068359375 0.000392913818359375 0 0 0.0000 0.0000 0.0000 0.0000 97.9571800231934 93.204345703125 4.75283432006836 4.75234603881836 2.50186347961426 0 0.0485 0.0485 0.0255 0.0000 7.25557899475098 6.62135124206543 0.634227752685547 0.384227752685547 0.383733749389648 0 0.0874 0.0530 0.0529 0.0000 331.514713287354 331.514698028564 1.52587890625e-05 0 0 0 0.0000 0.0000 0.0000 0.0000 97.9571800231934 97.9199924468994 0.0371875762939453 0.0369434356689453 0.0194587707519531 0 0.0004 0.0004 0.0002 0.0000 0x00400000 0.056884765625 0x10000000 0.0078125 0x7fffc000 0.03125 0x00400140 0x7fff8000 0 0.00197982788085938 4152k 0.00197982788085938 1522.32446670532 0.0000 
1048576 345.472871780396 100.448727607727 0.000847816467285156 407485.4466 345.472871780396 345.472421646118 0.00045013427734375 0.00020599365234375 0 0 0.0000 0.0000 0.0000 0.0000 100.448794364929 95.6952991485596 4.75349521636963 4.75325107574463 2.50229454040527 0 0.0473 0.0473 0.0249 0.0000 7.25623989105225 2.50467300415039 4.75156688690186 4.62656688690186 2.43862724304199 0 0.6548 0.6376 0.3361 0.0000 345.472871780396 345.472864151001 7.62939453125e-06 0 0 0 0.0000 0.0000 0.0000 0.0000 100.448794364929 100.41162776947 0.0371665954589844 0.0370445251464844 0.0195074081420898 0 0.0004 0.0004 0.0002 0.0000 0x00400000 0.0284423828125 0x10000000 0.00390625 0x7fffc000 0.015625 0x00400140 0x7fff8000 0 0.00197219848632812 8272k 0.100041389465332 1582.9647026062 0.0001 
2097152 364.478315353394 106.944586753845 0.000545501708984375 668152.4720 364.478315353394 364.478089332581 0.000226020812988281 0.000103950500488281 0 0 0.0000 0.0000 0.0000 0.0000 106.944620132446 101.691527843475 5.25309228897095 5.25297021865845 2.75215005874634 0 0.0491 0.0491 0.0257 0.0000 8.00546836853027 2.7542839050293 5.25118446350098 5.18868446350098 2.71966648101807 0 0.6559 0.6481 0.3397 0.0000 364.478315353394 364.478311538696 3.814697265625e-06 0 0 0 0.0000 0.0000 0.0000 0.0000 106.944620132446 106.90355682373 0.0410633087158203 0.0410022735595703 0.0214862823486328 0 0.0004 0.0004 0.0002 0.0000 0x00400000 0.01422119140625 0x10000000 0.001953125 0x7fffc000 0.0078125 0x00400140 0x7fff8000 0 0.00196552276611328 16488k 0.053217887878418 1671.89031505585 0.0000 
4194304 378.470454692841 109.439665079117 0.000391960144042969 965584.0280 378.470454692841 378.470342159271 0.000112533569335938 5.14984130859375e-05 0 0 0.0000 0.0000 0.0000 0.0000 109.439681768417 104.186793804169 5.25288796424866 5.25282692909241 2.75207328796387 0 0.0480 0.0480 0.0251 0.0000 8.00507378578186 2.75411486625671 5.25095891952515 5.21970891952515 2.73518085479736 0 0.6560 0.6521 0.3417 0.0000 378.470454692841 378.470452785492 1.9073486328125e-06 0 0 0 0.0000 0.0000 0.0000 0.0000 109.439681768417 109.398624658585 0.0410571098327637 0.0410265922546387 0.0214979648590088 0 0.0004 0.0004 0.0002 0.0000 0x00400000 0.007110595703125 0x10000000 0.0009765625 0x7fffc000 0.00390625 0x00400140 0x7fff8000 0 0.00196218490600586 32920k 0.0292243957519531 1732.80508899689 0.0000 
