#set_size_in_keys sim_num_insn sim_num_refs sim_elapsed_time sim_inst_rate sim_num_branches sim_IPB bpred_2lev.lookups bpred_2lev.updates bpred_2lev.addr_hits bpred_2lev.dir_hits bpred_2lev.misses bpred_2lev.jr_hits bpred_2lev.jr_seen bpred_2lev.jr_non_ras_hits.PP bpred_2lev.jr_non_ras_seen.PP bpred_2lev.bpred_addr_rate bpred_2lev.bpred_dir_rate bpred_2lev.bpred_jr_rate bpred_2lev.bpred_jr_non_ras_rate.PP bpred_2lev.retstack_pushes bpred_2lev.retstack_pops bpred_2lev.used_ras.PP bpred_2lev.ras_hits.PP bpred_2lev.ras_rate.PP
4096 217.146484375 66.305908203125 0.000244140625 889432.0000 30.622314453125 7.0911 30.622314453125 30.622314453125 23.992919921875 24.022705078125 6.599609375 2.089111328125 2.089111328125 0 0 0.7835 0.7845 1.0000 <error: 2.089599609375 2.089111328125 2.089111328125 2.089111328125 1.0000 
8192 234.237670898438 71.856689453125 0.0001220703125 1918875.0000 32.4432373046875 7.2199 32.4432373046875 32.4432373046875 25.322998046875 25.3402099609375 7.10302734375 2.0457763671875 2.0460205078125 0 0.0001220703125 0.7805 0.7811 0.9999 0.0000 2.046142578125 2.0458984375 2.0458984375 2.0457763671875 0.9999 
16384 247.230346679688 73.8750610351562 6.103515625e-05 4050622.0000 34.15283203125 7.2389 34.15283203125 34.15283203125 26.5147094726562 26.5225830078125 7.6302490234375 2.02276611328125 2.0228271484375 0 0 0.7764 0.7766 1.0000 <error: 2.02294921875 2.0228271484375 2.0228271484375 2.02276611328125 1.0000 
32768 265.734771728516 80.136962890625 6.103515625e-05 4353798.5000 36.2005920410156 7.3406 36.2005920410156 36.2005920410156 28.0269165039062 28.0313720703125 8.16921997070312 2.01144409179688 2.01150512695312 0 3.0517578125e-05 0.7742 0.7743 1.0000 0.0000 2.01153564453125 2.011474609375 2.011474609375 2.01144409179688 1.0000 
65536 279.55729675293 82.5308990478516 6.103515625e-05 4580266.7500 38.046875 7.3477 38.046875 38.046875 29.3370971679688 29.3391876220703 8.70768737792969 2.00569152832031 2.00570678710938 0 0 0.7711 0.7711 1.0000 <error: 2.0057373046875 2.00570678710938 2.00570678710938 2.00569152832031 1.0000 
131072 298.642028808594 89.0118865966797 6.866455078125e-05 4349289.7778 40.1819000244141 7.4323 40.1819000244141 40.1819000244141 30.9514770507812 30.9525756835938 9.22932434082031 2.00286102294922 2.00287628173828 0 7.62939453125e-06 0.7703 0.7703 1.0000 0.0000 2.00288391113281 2.00286865234375 2.00286865234375 2.00286102294922 1.0000 
262144 312.547954559326 91.4738807678223 7.2479248046875e-05 4312240.5789 42.0456199645996 7.4335 42.0456199645996 42.0456199645996 32.2732429504395 32.2737922668457 9.77182769775391 2.00142288208008 2.00142669677734 0 0 0.7676 0.7676 1.0000 <error: 2.00143432617188 2.00142669677734 2.00142669677734 2.00142288208008 1.0000 
524288 331.514713287354 97.9570465087891 7.62939453125e-05 4345229.6500 44.1682147979736 7.5057 44.1682147979736 44.1682147979736 33.8512134552002 33.851490020752 10.3167247772217 2.0007152557373 2.00071907043457 0 1.9073486328125e-06 0.7664 0.7664 1.0000 0.0000 2.0007209777832 2.00071716308594 2.00071716308594 2.0007152557373 1.0000 
1048576 345.472871780396 100.448727607727 7.91549682617188e-05 4364512.7952 46.0397310256958 7.5038 46.0397310256958 46.0397310256958 35.1780214309692 35.1781673431396 10.8615636825562 2.00035858154297 2.00035953521729 0 9.5367431640625e-07 0.7641 0.7641 1.0000 0.0000 2.0003604888916 2.00035858154297 2.00035858154297 2.00035858154297 1.0000 
2097152 364.478315353394 106.944586753845 8.29696655273438e-05 4392910.5057 48.1689481735229 7.5667 48.1689481735229 48.1689481735229 36.7645196914673 36.7645945549011 11.4043536186218 2.00018072128296 2.00018119812012 4.76837158203125e-07 9.5367431640625e-07 0.7632 0.7632 1.0000 0.5000 2.00018119812012 2.0001802444458 2.0001802444458 2.0001802444458 1.0000 
4194304 378.470454692841 109.439665079117 8.55922698974609e-05 4421783.1253 50.0462489128113 7.5624 50.0462489128113 50.0462489128113 38.099381685257 38.0994193553925 11.9468295574188 2.00008964538574 2.00008988380432 0 2.38418579101562e-07 0.7613 0.7613 1.0000 0.0000 2.0000901222229 2.00008964538574 2.00008964538574 2.00008964538574 1.0000 
