#set_size_in_keys sim_num_insn sim_num_refs sim_elapsed_time sim_inst_rate il1.accesses il1.hits il1.misses il1.replacements il1.writebacks il1.invalidations il1.miss_rate il1.repl_rate il1.wb_rate il1.inv_rate dl1.accesses dl1.hits dl1.misses dl1.replacements dl1.writebacks dl1.invalidations dl1.miss_rate dl1.repl_rate dl1.wb_rate dl1.inv_rate dl2.accesses dl2.hits dl2.misses dl2.replacements dl2.writebacks dl2.invalidations dl2.miss_rate dl2.repl_rate dl2.wb_rate dl2.inv_rate itlb.accesses itlb.hits itlb.misses itlb.replacements itlb.writebacks itlb.invalidations itlb.miss_rate itlb.repl_rate itlb.wb_rate itlb.inv_rate dtlb.accesses dtlb.hits dtlb.misses dtlb.replacements dtlb.writebacks dtlb.invalidations dtlb.miss_rate dtlb.repl_rate dtlb.wb_rate dtlb.inv_rate ld_text_base ld_text_size ld_data_base ld_data_size ld_stack_base ld_stack_size ld_prog_entry ld_environ_base ld_target_big_endian mem.page_count mem.page_mem mem.ptab_misses mem.ptab_accesses mem.ptab_miss_rate
4096 217.146484375 66.305908203125 0.000244140625 889432.0000 217.146484375 217.03125 0.115234375 0.06103515625 0 0 0.0005 0.0003 0.0000 0.0000 66.322998046875 61.3369140625 4.986083984375 4.923583984375 2.590576171875 0 0.0752 0.0742 0.0391 0.0000 7.69189453125 7.22802734375 0.4638671875 0.09765625 0.059326171875 0 0.0603 0.0127 0.0077 0.0000 217.146484375 217.14453125 0.001953125 0 0 0 0.0000 0.0000 0.0000 0.0000 66.322998046875 66.319580078125 0.00341796875 0 0 0 0.0001 0.0000 0.0000 0.0000 0x00400000 7.26171875 0x10000000 1 0x7fffc000 4 0x00400140 0x7fff8000 0 0.00537109375 88k 0.00537109375 1046.0751953125 0.0000 
8192 234.237670898438 71.856689453125 0.0001220703125 1918875.0000 234.237670898438 234.173706054688 0.06396484375 0.035400390625 0 0 0.0003 0.0002 0.0000 0.0000 71.865234375 66.394287109375 5.470947265625 5.439697265625 2.816162109375 0 0.0761 0.0757 0.0392 0.0000 8.35107421875 7.990478515625 0.360595703125 0.0523681640625 0.033447265625 0 0.0432 0.0063 0.0040 0.0000 234.237670898438 234.236694335938 0.0009765625 0 0 0 0.0000 0.0000 0.0000 0.0000 71.865234375 71.862548828125 0.002685546875 0 0 0 0.0000 0.0000 0.0000 0.0000 0x00400000 3.634765625 0x10000000 0.5 0x7fffc000 2 0x00400140 0x7fff8000 0 0.003662109375 120k 0.003662109375 1103.12622070312 0.0000 
16384 247.230346679688 73.8750610351562 0.00018310546875 1350207.3333 247.230346679688 247.200439453125 0.0299072265625 0.01678466796875 0 0 0.0001 0.0001 0.0000 0.0000 73.8793334960938 68.41357421875 5.46575927734375 5.45013427734375 2.81884765625 0 0.0740 0.0738 0.0382 0.0000 8.31451416015625 8.0108642578125 0.30364990234375 0.02459716796875 0.01513671875 0 0.0365 0.0030 0.0018 0.0000 247.230346679688 247.229858398438 0.00048828125 0 0 0 0.0000 0.0000 0.0000 0.0000 73.8793334960938 73.8770141601562 0.0023193359375 0 0 0 0.0000 0.0000 0.0000 0.0000 0x00400000 1.818359375 0x10000000 0.25 0x7fffc000 1 0x00400140 0x7fff8000 0 0.0028076171875 184k 0.0028076171875 1147.90844726562 0.0000 
32768 265.734771728516 80.136962890625 0.000152587890625 1741519.4000 265.734771728516 265.719207763672 0.01556396484375 0.00860595703125 0 0 0.0001 0.0000 0.0000 0.0000 80.1390991210938 74.1618347167969 5.97726440429688 5.96945190429688 3.06320190429688 0 0.0746 0.0745 0.0382 0.0000 9.0560302734375 8.77865600585938 0.277374267578125 0.0128173828125 0.008148193359375 0 0.0306 0.0014 0.0009 0.0000 265.734771728516 265.734527587891 0.000244140625 0 0 0 0.0000 0.0000 0.0000 0.0000 80.1390991210938 80.136962890625 0.00213623046875 0 0 0 0.0000 0.0000 0.0000 0.0000 0x00400000 0.91015625 0x10000000 0.125 0x7fffc000 0.5 0x00400140 0x7fff8000 0 0.00238037109375 312k 0.00238037109375 1228.83734130859 0.0000 
65536 279.55729675293 82.5308990478516 0.000152587890625 1832106.7000 279.55729675293 279.549819946289 0.007476806640625 0.00421142578125 0 0 0.0000 0.0000 0.0000 0.0000 82.5319671630859 76.5227508544922 6.00921630859375 6.00531005859375 3.07209777832031 0 0.0728 0.0728 0.0372 0.0000 9.08879089355469 8.82540893554688 0.263381958007812 0.0061187744140625 0.0037994384765625 0 0.0290 0.0007 0.0004 0.0000 279.55729675293 279.557174682617 0.0001220703125 0 0 0 0.0000 0.0000 0.0000 0.0000 82.5319671630859 82.5289459228516 0.003021240234375 0.001068115234375 0.0006256103515625 0 0.0000 0.0000 0.0000 0.0000 0x00400000 0.455078125 0x10000000 0.0625 0x7fffc000 0.25 0x00400140 0x7fff8000 0 0.002166748046875 568k 0.002166748046875 1286.10314941406 0.0000 
131072 298.642028808594 89.0118865966797 0.0001678466796875 1779254.9091 298.642028808594 298.638130187988 0.00389862060546875 0.00215911865234375 0 0 0.0000 0.0000 0.0000 0.0000 89.0124206542969 82.4907073974609 6.52171325683594 6.51976013183594 3.3231201171875 0 0.0733 0.0732 0.0373 0.0000 9.84873199462891 9.59188842773438 0.256843566894531 0.003204345703125 0.002044677734375 0 0.0261 0.0003 0.0002 0.0000 298.642028808594 298.641967773438 6.103515625e-05 0 0 0 0.0000 0.0000 0.0000 0.0000 89.0124206542969 88.9800643920898 0.0323562622070312 0.0313796997070312 0.0163955688476562 0 0.0004 0.0004 0.0002 0.0000 0x00400000 0.2275390625 0x10000000 0.03125 0x7fffc000 0.125 0x00400140 0x7fff8000 0 0.0020599365234375 1080k 0.0020599365234375 1373.99797058105 0.0000 
262144 312.547954559326 91.4738807678223 0.0001678466796875 1862103.8864 312.547954559326 312.546085357666 0.00186920166015625 0.0010528564453125 0 0 0.0000 0.0000 0.0000 0.0000 91.4741477966309 84.9237480163574 6.55039978027344 6.54942321777344 3.33100891113281 0 0.0716 0.0716 0.0364 0.0000 9.88327789306641 9.45586395263672 0.427413940429688 0.181484222412109 0.0987625122070312 0 0.0432 0.0184 0.0100 0.0000 312.547954559326 312.547924041748 3.0517578125e-05 0 0 0 0.0000 0.0000 0.0000 0.0000 91.4741477966309 91.4408302307129 0.0333175659179688 0.0328292846679688 0.0173988342285156 0 0.0004 0.0004 0.0002 0.0000 0x00400000 0.11376953125 0x10000000 0.015625 0x7fffc000 0.0625 0x00400140 0x7fff8000 0 0.00200653076171875 2104k 0.00200653076171875 1433.84262084961 0.0000 
524288 331.514713287354 97.9570465087891 0.000179290771484375 1849033.8936 331.514713287354 331.513738632202 0.000974655151367188 0.000539779663085938 0 0 0.0000 0.0000 0.0000 0.0000 97.9571800231934 90.8812656402588 7.07591438293457 7.07542610168457 3.587158203125 0 0.0722 0.0722 0.0366 0.0000 10.6640472412109 6.2851390838623 4.37890815734863 4.25390815734863 2.25570487976074 0 0.4106 0.3989 0.2115 0.0000 331.514713287354 331.514698028564 1.52587890625e-05 0 0 0 0.0000 0.0000 0.0000 0.0000 97.9571800231934 97.9199924468994 0.0371875762939453 0.0369434356689453 0.0194587707519531 0 0.0004 0.0004 0.0002 0.0000 0x00400000 0.056884765625 0x10000000 0.0078125 0x7fffc000 0.03125 0x00400140 0x7fff8000 0 0.00197982788085938 4152k 0.00197982788085938 1522.32446670532 0.0000 
1048576 345.472871780396 100.448727607727 0.000186920166015625 1848237.5612 345.472871780396 345.472371101379 0.000500679016113281 0.000270843505859375 0 0 0.0000 0.0000 0.0000 0.0000 100.448794364929 93.3447513580322 7.10404300689697 7.10379886627197 3.59460830688477 0 0.0707 0.0707 0.0358 0.0000 10.6991519927979 5.94693851470947 4.75221347808838 4.68971347808838 2.46137714385986 0 0.4442 0.4383 0.2301 0.0000 345.472871780396 345.472864151001 7.62939453125e-06 0 0 0 0.0000 0.0000 0.0000 0.0000 100.448794364929 100.41162776947 0.0371665954589844 0.0370445251464844 0.0195074081420898 0 0.0004 0.0004 0.0002 0.0000 0x00400000 0.0284423828125 0x10000000 0.00390625 0x7fffc000 0.015625 0x00400140 0x7fff8000 0 0.00197219848632812 8272k 0.100041389465332 1582.9647026062 0.0001 
2097152 364.478315353394 106.944586753845 0.000196933746337891 1850766.1695 364.478315353394 364.478064060211 0.000251293182373047 0.000136375427246094 0 0 0.0000 0.0000 0.0000 0.0000 106.944620132446 99.3142061233521 7.63041400909424 7.63029193878174 3.85137939453125 0 0.0713 0.0713 0.0360 0.0000 11.4820446968079 6.22874927520752 5.25329542160034 5.22204542160034 2.72145557403564 0 0.4575 0.4548 0.2370 0.0000 364.478315353394 364.478311538696 3.814697265625e-06 0 0 0 0.0000 0.0000 0.0000 0.0000 106.944620132446 106.90355682373 0.0410633087158203 0.0410022735595703 0.0214862823486328 0 0.0004 0.0004 0.0002 0.0000 0x00400000 0.01422119140625 0x10000000 0.001953125 0x7fffc000 0.0078125 0x00400140 0x7fff8000 0 0.00196552276611328 16488k 0.053217887878418 1671.89031505585 0.0000 
4194304 378.470454692841 109.439665079117 0.000204801559448242 1847986.1956 378.470454692841 378.470329523087 0.00012516975402832 6.77108764648438e-05 0 0 0.0000 0.0000 0.0000 0.0000 109.439681768417 101.7822701931 7.65741157531738 7.65735054016113 3.85861706733704 0 0.0700 0.0700 0.0353 0.0000 11.5161538124084 6.26299357414246 5.25316023826599 5.23753523826599 2.74169397354126 0 0.4562 0.4548 0.2381 0.0000 378.470454692841 378.470452785492 1.9073486328125e-06 0 0 0 0.0000 0.0000 0.0000 0.0000 109.439681768417 109.398624658585 0.0410571098327637 0.0410265922546387 0.0214979648590088 0 0.0004 0.0004 0.0002 0.0000 0x00400000 0.007110595703125 0x10000000 0.0009765625 0x7fffc000 0.00390625 0x00400140 0x7fff8000 0 0.00196218490600586 32920k 0.0292243957519531 1732.80508899689 0.0000 
