#set_size_in_keys sim_num_insn sim_num_refs sim_elapsed_time sim_inst_rate sim_num_branches sim_IPB bpred_bimod.lookups bpred_bimod.updates bpred_bimod.addr_hits bpred_bimod.dir_hits bpred_bimod.misses bpred_bimod.jr_hits bpred_bimod.jr_seen bpred_bimod.jr_non_ras_hits.PP bpred_bimod.jr_non_ras_seen.PP bpred_bimod.bpred_addr_rate bpred_bimod.bpred_dir_rate bpred_bimod.bpred_jr_rate bpred_bimod.bpred_jr_non_ras_rate.PP bpred_bimod.retstack_pushes bpred_bimod.retstack_pops bpred_bimod.used_ras.PP bpred_bimod.ras_hits.PP bpred_bimod.ras_rate.PP
4096 219.8154296875 47.149169921875 0.000244140625 900364.0000 35.490478515625 6.1936 35.490478515625 35.490478515625 27.242919921875 27.266357421875 8.22412109375 0.013427734375 0.013671875 0 0 0.7676 0.7683 0.9821 <error: 0.01416015625 0.013671875 0.013671875 0.013427734375 0.9821 
8192 243.421508789062 51.130859375 0.0001220703125 1994109.0000 39.4735107421875 6.1667 39.4735107421875 39.4735107421875 30.3294677734375 30.34130859375 9.1322021484375 0.0067138671875 0.0068359375 0 0 0.7683 0.7686 0.9821 <error: 0.007080078125 0.0068359375 0.0068359375 0.0067138671875 0.9821 
16384 278.366088867188 56.2092895507812 6.103515625e-05 4560750.0000 45.4146118164062 6.1294 45.4146118164062 45.4146118164062 34.8657836914062 34.8717651367188 10.5428466796875 0.00335693359375 0.00341796875 0 0 0.7677 0.7679 0.9821 <error: 0.0035400390625 0.00341796875 0.00341796875 0.00335693359375 0.9821 
32768 303.868438720703 60.7448425292969 6.103515625e-05 4978580.5000 49.6866149902344 6.1157 49.6866149902344 49.6866149902344 38.1440734863281 38.1470336914062 11.5395812988281 0.001678466796875 0.001708984375 0 0 0.7677 0.7678 0.9821 <error: 0.00177001953125 0.001708984375 0.001708984375 0.001678466796875 0.9821 
65536 324.234024047852 70.6089172363281 3.0517578125e-05 10624500.5000 52.4937438964844 6.1766 52.4937438964844 52.4937438964844 41.1407928466797 41.1422882080078 11.3514556884766 0.0008392333984375 0.0008544921875 0 0 0.7837 0.7838 0.9821 <error: 0.000885009765625 0.0008544921875 0.0008544921875 0.0008392333984375 0.9821 
131072 361.584411621094 77.4178695678711 4.57763671875e-05 7898932.0000 58.7116775512695 6.1586 58.7116775512695 58.7116775512695 46.2240142822266 46.2247695922852 12.4869079589844 0.00041961669921875 0.00042724609375 0 0 0.7873 0.7873 0.9821 <error: 0.0004425048828125 0.00042724609375 0.00042724609375 0.00041961669921875 0.9821 
262144 371.939960479736 76.6944198608398 0.000335693359375 1107975.3295 60.7059936523438 6.1269 60.7059936523438 60.7059936523438 47.1913452148438 47.1917266845703 13.5142669677734 0.000209808349609375 0.000213623046875 0 0 0.7774 0.7774 0.9821 <error: 0.00022125244140625 0.000213623046875 0.000213623046875 0.000209808349609375 0.9821 
524288 399.680500030518 81.1172027587891 7.2479248046875e-05 5514412.8947 65.393238067627 6.1120 65.393238067627 65.393238067627 50.6596717834473 50.6598625183105 14.7333755493164 0.000104904174804688 0.0001068115234375 0 0 0.7747 0.7747 0.9821 <error: 0.000110626220703125 0.0001068115234375 0.0001068115234375 0.000104904174804688 0.9821 
1048576 423.871543884277 84.3878154754639 0.000379562377929688 1116737.5075 69.5398025512695 6.0954 69.5398025512695 69.5398025512695 53.6267709732056 53.6268653869629 15.9129371643066 5.24520874023438e-05 5.340576171875e-05 0 0 0.7712 0.7712 0.9821 <error: 5.53131103515625e-05 5.340576171875e-05 5.340576171875e-05 5.24520874023438e-05 0.9821 
2097152 455.223992347717 91.094021320343 5.57899475097656e-05 8159606.0342 74.676082611084 6.0960 74.676082611084 74.676082611084 57.732608795166 57.7326555252075 16.9434270858765 2.62260437011719e-05 2.6702880859375e-05 0 0 0.7731 0.7731 0.9821 <error: 2.76565551757812e-05 2.6702880859375e-05 2.6702880859375e-05 2.62260437011719e-05 0.9821 
4194304 475.163735151291 92.0518789291382 0.000417947769165039 1136897.4073 78.2598836421967 6.0716 78.2598836421967 78.2598836421967 60.2004017829895 60.2004249095917 18.059458732605 1.31130218505859e-05 1.33514404296875e-05 0 0 0.7692 0.7692 0.9821 <error: 1.38282775878906e-05 1.33514404296875e-05 1.33514404296875e-05 1.31130218505859e-05 0.9821 
