#set_size_in_keys sim_num_insn sim_num_refs sim_elapsed_time sim_inst_rate sim_num_branches sim_IPB bpred_bimod.lookups bpred_bimod.updates bpred_bimod.addr_hits bpred_bimod.dir_hits bpred_bimod.misses bpred_bimod.jr_hits bpred_bimod.jr_seen bpred_bimod.jr_non_ras_hits.PP bpred_bimod.jr_non_ras_seen.PP bpred_bimod.bpred_addr_rate bpred_bimod.bpred_dir_rate bpred_bimod.bpred_jr_rate bpred_bimod.bpred_jr_non_ras_rate.PP bpred_bimod.retstack_pushes bpred_bimod.retstack_pops bpred_bimod.used_ras.PP bpred_bimod.ras_hits.PP bpred_bimod.ras_rate.PP
4096 11440.73046875 5137.30737304688 0.00146484375 7810205.3333 1929.67041015625 5.9289 1929.67041015625 1929.67041015625 1590.53198242188 1590.5546875 339.11572265625 0.013427734375 0.013671875 0 0 0.8243 0.8243 0.9821 <error: 0.01416015625 0.013671875 0.013671875 0.013427734375 0.9821 
8192 22867.5860595703 10264.8323974609 0.0028076171875 8144837.6087 3860.78649902344 5.9230 3860.78649902344 3860.78649902344 3180.81799316406 3180.82934570312 679.957153320312 0.0067138671875 0.0068359375 0 0 0.8239 0.8239 0.9821 <error: 0.007080078125 0.0068359375 0.0068359375 0.0067138671875 0.9821 
16384 45991.6572265625 20672.3667602539 0.00567626953125 8102444.2151 7751.59399414062 5.9332 7751.59399414062 7751.59399414062 6390.03521728516 6390.04107666016 1361.55291748047 0.00335693359375 0.00341796875 0 0 0.8244 0.8244 0.9821 <error: 0.0035400390625 0.00341796875 0.00341796875 0.00335693359375 0.9821 
32768 90740.8870849609 40790.740020752 0.0111083984375 8168674.1429 15280.4344177246 5.9384 15280.4344177246 15280.4344177246 12553.3578796387 12553.3607177734 2727.07369995117 0.001678466796875 0.001708984375 0 0 0.8215 0.8215 0.9821 <error: 0.00177001953125 0.001708984375 0.001708984375 0.001678466796875 0.9821 
65536 182223.438964844 81861.3994598389 0.0199737548828125 9123143.8472 30723.2613220215 5.9311 30723.2613220215 30723.2613220215 25271.2861480713 25271.2875823975 5451.97373962402 0.0008392333984375 0.0008544921875 0 0 0.8225 0.8225 0.9821 <error: 0.000885009765625 0.0008544921875 0.0008544921875 0.0008392333984375 0.9821 
