#set_size_in_keys sim_num_insn sim_num_refs sim_elapsed_time sim_inst_rate il1.accesses il1.hits il1.misses il1.replacements il1.writebacks il1.invalidations il1.miss_rate il1.repl_rate il1.wb_rate il1.inv_rate dl1.accesses dl1.hits dl1.misses dl1.replacements dl1.writebacks dl1.invalidations dl1.miss_rate dl1.repl_rate dl1.wb_rate dl1.inv_rate dl2.accesses dl2.hits dl2.misses dl2.replacements dl2.writebacks dl2.invalidations dl2.miss_rate dl2.repl_rate dl2.wb_rate dl2.inv_rate itlb.accesses itlb.hits itlb.misses itlb.replacements itlb.writebacks itlb.invalidations itlb.miss_rate itlb.repl_rate itlb.wb_rate itlb.inv_rate dtlb.accesses dtlb.hits dtlb.misses dtlb.replacements dtlb.writebacks dtlb.invalidations dtlb.miss_rate dtlb.repl_rate dtlb.wb_rate dtlb.inv_rate ld_text_base ld_text_size ld_data_base ld_data_size ld_stack_base ld_stack_size ld_prog_entry ld_environ_base ld_target_big_endian mem.page_count mem.page_mem mem.ptab_misses mem.ptab_accesses mem.ptab_miss_rate
4096 113.745849609375 29.9248046875 0.000244140625 465903.0000 113.745849609375 113.627197265625 0.11865234375 0.06494140625 0 0 0.0010 0.0006 0.0000 0.0000 33.9443359375 33.3603515625 0.583984375 0.521484375 0.48876953125 0 0.0172 0.0154 0.0144 0.0000 1.19140625 0.849365234375 0.342041015625 0.041748046875 0.027587890625 0 0.2871 0.0350 0.0232 0.0000 113.745849609375 113.742919921875 0.0029296875 0 0 0 0.0000 0.0000 0.0000 0.0000 33.9443359375 33.94140625 0.0029296875 0 0 0 0.0001 0.0000 0.0000 0.0000 0x00400000 19.75 0x10000000 2.0205078125 0x7fffc000 4 0x00400140 0x7fff8000 0 0.0078125 128k 0.0078125 645.05322265625 0.0000 
8192 124.467163085938 31.94775390625 0.0001220703125 1019635.0000 124.467163085938 124.407836914062 0.059326171875 0.032470703125 0 0 0.0005 0.0003 0.0000 0.0000 35.95751953125 35.276611328125 0.680908203125 0.649658203125 0.580078125 0 0.0189 0.0181 0.0161 0.0000 1.3203125 1.086669921875 0.233642578125 0.02099609375 0.013916015625 0 0.1770 0.0159 0.0105 0.0000 124.467163085938 124.465698242188 0.00146484375 0 0 0 0.0000 0.0000 0.0000 0.0000 35.95751953125 35.95556640625 0.001953125 0 0 0 0.0001 0.0000 0.0000 0.0000 0x00400000 9.87890625 0x10000000 1.01025390625 0x7fffc000 2 0x00400140 0x7fff8000 0 0.00439453125 144k 0.00439453125 630.897705078125 0.0000 
16384 132.07958984375 33.6799926757812 6.103515625e-05 2163992.0000 132.07958984375 132.04931640625 0.0302734375 0.0169677734375 0 0 0.0002 0.0001 0.0000 0.0000 37.6848754882812 36.9329223632812 0.751953125 0.736328125 0.68365478515625 0 0.0200 0.0195 0.0181 0.0000 1.46588134765625 1.287109375 0.17877197265625 0.010986328125 0.0072021484375 0 0.1220 0.0075 0.0049 0.0000 132.07958984375 132.078857421875 0.000732421875 0 0 0 0.0000 0.0000 0.0000 0.0000 37.6848754882812 37.6834106445312 0.00146484375 0 0 0 0.0000 0.0000 0.0000 0.0000 0x00400000 4.9404296875 0x10000000 0.505126953125 0x7fffc000 1 0x00400140 0x7fff8000 0 0.002685546875 176k 0.002685546875 634.2509765625 0.0000 
32768 142.413269042969 35.81494140625 6.103515625e-05 2333299.0000 142.413269042969 142.398712158203 0.014556884765625 0.007843017578125 0 0 0.0001 0.0001 0.0000 0.0000 39.8173828125 38.893310546875 0.924072265625 0.916259765625 0.8348388671875 0 0.0232 0.0230 0.0210 0.0000 1.77346801757812 1.62200927734375 0.151458740234375 0.005279541015625 0.003509521484375 0 0.0854 0.0030 0.0020 0.0000 142.413269042969 142.412902832031 0.0003662109375 0 0 0 0.0000 0.0000 0.0000 0.0000 39.8173828125 39.816162109375 0.001220703125 0 0 0 0.0000 0.0000 0.0000 0.0000 0x00400000 2.470703125 0x10000000 0.2525634765625 0x7fffc000 0.5 0x00400140 0x7fff8000 0 0.0018310546875 240k 0.0018310546875 664.572204589844 0.0000 
65536 152.617004394531 38.1328582763672 4.57763671875e-05 3333969.3333 152.617004394531 152.609603881836 0.0074005126953125 0.0040435791015625 0 0 0.0000 0.0000 0.0000 0.0000 42.1340789794922 41.0496978759766 1.08438110351562 1.08047485351562 0.949142456054688 0 0.0257 0.0256 0.0225 0.0000 2.04092407226562 1.90255737304688 0.13836669921875 0.0026397705078125 0.0017547607421875 0 0.0678 0.0013 0.0009 0.0000 152.617004394531 152.616821289062 0.00018310546875 0 0 0 0.0000 0.0000 0.0000 0.0000 42.1340789794922 42.1329803466797 0.0010986328125 0 0 0 0.0000 0.0000 0.0000 0.0000 0x00400000 1.2353515625 0x10000000 0.12628173828125 0x7fffc000 0.25 0x00400140 0x7fff8000 0 0.00140380859375 368k 0.00140380859375 702.378356933594 0.0000 
131072 158.389213562012 39.7159271240234 4.57763671875e-05 3460065.1667 158.389213562012 158.385429382324 0.0037841796875 0.002105712890625 0 0 0.0000 0.0000 0.0000 0.0000 43.7165374755859 42.5695266723633 1.14701080322266 1.14505767822266 1.05982971191406 0 0.0262 0.0262 0.0242 0.0000 2.21062469482422 2.07888031005859 0.131744384765625 0.00131988525390625 0.00087738037109375 0 0.0596 0.0006 0.0004 0.0000 158.389213562012 158.389122009277 9.1552734375e-05 0 0 0 0.0000 0.0000 0.0000 0.0000 43.7165374755859 43.7152633666992 0.00127410888671875 0.00029754638671875 0.00028228759765625 0 0.0000 0.0000 0.0000 0.0000 0x00400000 0.61767578125 0x10000000 0.063140869140625 0x7fffc000 0.125 0x00400140 0x7fff8000 0 0.001190185546875 624k 0.001190185546875 724.811019897461 0.0000 
262144 171.741611480713 42.4147491455078 4.9591064453125e-05 3463156.3846 171.741611480713 171.739719390869 0.00189208984375 0.0010528564453125 0 0 0.0000 0.0000 0.0000 0.0000 46.4150543212891 45.0215225219727 1.39353179931641 1.39255523681641 1.23308563232422 0 0.0300 0.0300 0.0266 0.0000 2.62850952148438 2.50013732910156 0.128372192382812 0.000659942626953125 0.000438690185546875 0 0.0488 0.0003 0.0002 0.0000 171.741611480713 171.741565704346 4.57763671875e-05 0 0 0 0.0000 0.0000 0.0000 0.0000 46.4150543212891 46.4117279052734 0.003326416015625 0.002838134765625 0.00283050537109375 0 0.0001 0.0001 0.0001 0.0000 0x00400000 0.308837890625 0x10000000 0.0315704345703125 0x7fffc000 0.0625 0x00400140 0x7fff8000 0 0.0010833740234375 1136k 0.0010833740234375 781.707099914551 0.0000 
524288 179.478385925293 44.3612022399902 4.9591064453125e-05 3619167.8462 179.478385925293 179.477445602417 0.000940322875976562 0.000520706176757812 0 0 0.0000 0.0000 0.0000 0.0000 48.3613548278809 46.8485221862793 1.51283264160156 1.51234436035156 1.35140419006348 0 0.0313 0.0313 0.0279 0.0000 2.86517715454102 2.73849678039551 0.126680374145508 0.000329971313476562 0.000219345092773438 0 0.0442 0.0001 0.0001 0.0000 179.478385925293 179.478363037109 2.288818359375e-05 0 0 0 0.0000 0.0000 0.0000 0.0000 48.3613548278809 48.3570384979248 0.00431632995605469 0.00407218933105469 0.00406837463378906 0 0.0001 0.0001 0.0001 0.0000 0x00400000 0.1544189453125 0x10000000 0.0157852172851562 0x7fffc000 0.03125 0x00400140 0x7fff8000 0 0.00102996826171875 2160k 0.00102996826171875 815.591526031494 0.0000 
1048576 191.039436340332 46.8030109405518 5.340576171875e-05 3577131.5714 191.039436340332 191.038963317871 0.0004730224609375 0.000263214111328125 0 0 0.0000 0.0000 0.0000 0.0000 50.8030872344971 49.0926208496094 1.7104663848877 1.7102222442627 1.50732612609863 0 0.0337 0.0337 0.0297 0.0000 3.21826553344727 3.09173393249512 0.126531600952148 0.00153160095214844 0.00128364562988281 0 0.0393 0.0005 0.0004 0.0000 191.039436340332 191.03942489624 1.1444091796875e-05 0 0 0 0.0000 0.0000 0.0000 0.0000 50.8030872344971 50.7967910766602 0.00629615783691406 0.00617408752441406 0.00617218017578125 0 0.0001 0.0001 0.0001 0.0000 0x00400000 0.07720947265625 0x10000000 0.00789260864257812 0x7fffc000 0.015625 0x00400140 0x7fff8000 0 0.00100326538085938 4208k 0.00100326538085938 866.241556167603 0.0000 
2097152 272.639992713928 68.578905582428 7.77244567871094e-05 3507776.1104 272.639992713928 272.639623641968 0.000369071960449219 0.000247478485107422 0 0 0.0000 0.0000 0.0000 0.0000 72.5789442062378 68.3839926719666 4.19495153427124 4.19482946395874 2.66147994995117 0 0.0578 0.0578 0.0367 0.0000 6.85680055618286 6.20701932907104 0.649781227111816 0.587281227111816 0.352849006652832 0 0.0948 0.0856 0.0515 0.0000 272.639992713928 272.639986991882 5.7220458984375e-06 0 0 0 0.0000 0.0000 0.0000 0.0000 72.5789442062378 72.5717005729675 0.00724363327026367 0.00718259811401367 0.00619792938232422 0 0.0001 0.0001 0.0001 0.0000 0x00400000 0.038604736328125 0x10000000 0.00394630432128906 0x7fffc000 0.0078125 0x00400140 0x7fff8000 0 0.00197792053222656 16592k 0.0107583999633789 1235.95667743683 0.0000 
4194304 290.834966897964 75.0743036270142 8.32080841064453e-05 3495272.9656 290.834966897964 290.834781646729 0.000185251235961914 0.000124216079711914 0 0 0.0000 0.0000 0.0000 0.0000 79.0743229389191 75.9431540966034 3.13116884231567 3.13110780715942 2.64301872253418 0 0.0396 0.0396 0.0334 0.0000 5.77437281608582 4.89682292938232 0.877549886703491 0.846299886703491 0.597442388534546 0 0.1520 0.1466 0.1035 0.0000 290.834966897964 290.834964036942 2.86102294921875e-06 0 0 0 0.0000 0.0000 0.0000 0.0000 79.0743229389191 79.0646221637726 0.00970077514648438 0.00967025756835938 0.00868606567382812 0 0.0001 0.0001 0.0001 0.0000 0x00400000 0.0193023681640625 0x10000000 0.00197315216064453 0x7fffc000 0.00390625 0x00400140 0x7fff8000 0 0.00197100639343262 33068k 0.00831055641174316 1321.60792255402 0.0000 
