#set_size_in_keys sim_num_insn sim_num_refs sim_elapsed_time sim_inst_rate il1.accesses il1.hits il1.misses il1.replacements il1.writebacks il1.invalidations il1.miss_rate il1.repl_rate il1.wb_rate il1.inv_rate dl1.accesses dl1.hits dl1.misses dl1.replacements dl1.writebacks dl1.invalidations dl1.miss_rate dl1.repl_rate dl1.wb_rate dl1.inv_rate dl2.accesses dl2.hits dl2.misses dl2.replacements dl2.writebacks dl2.invalidations dl2.miss_rate dl2.repl_rate dl2.wb_rate dl2.inv_rate itlb.accesses itlb.hits itlb.misses itlb.replacements itlb.writebacks itlb.invalidations itlb.miss_rate itlb.repl_rate itlb.wb_rate itlb.inv_rate dtlb.accesses dtlb.hits dtlb.misses dtlb.replacements dtlb.writebacks dtlb.invalidations dtlb.miss_rate dtlb.repl_rate dtlb.wb_rate dtlb.inv_rate ld_text_base ld_text_size ld_data_base ld_data_size ld_stack_base ld_stack_size ld_prog_entry ld_environ_base ld_target_big_endian mem.page_count mem.page_mem mem.ptab_misses mem.ptab_accesses mem.ptab_miss_rate
4096 210.08935546875 55.92333984375 0.00244140625 86052.6000 210.08935546875 209.949951171875 0.139404296875 0.076904296875 0 0 0.0007 0.0004 0.0000 0.0000 59.94287109375 58.251220703125 1.691650390625 1.629150390625 1.230224609375 0 0.0282 0.0272 0.0205 0.0000 3.061279296875 2.583740234375 0.4775390625 0 0 0 0.1560 0.0000 0.0000 0.0000 210.08935546875 210.08544921875 0.00390625 0 0 0 0.0000 0.0000 0.0000 0.0000 59.94287109375 59.93896484375 0.00390625 0 0 0 0.0001 0.0000 0.0000 0.0000 0x00400000 23.7109375 0x10000000 2.0166015625 0x7fffc000 4 0x00400140 0x7fff8000 0 0.009765625 160k 0.009765625 1105.91552734375 0.0000 
8192 213.835205078125 57.6357421875 0.001953125 109483.6250 213.835205078125 213.76318359375 0.072021484375 0.040771484375 0 0 0.0003 0.0002 0.0000 0.0000 61.6455078125 59.914306640625 1.731201171875 1.699951171875 1.191650390625 0 0.0281 0.0276 0.0193 0.0000 2.994873046875 2.6290283203125 0.3658447265625 0 0 0 0.1222 0.0000 0.0000 0.0000 213.835205078125 213.833129882812 0.0020751953125 0 0 0 0.0000 0.0000 0.0000 0.0000 61.6455078125 61.642578125 0.0029296875 0 0 0 0.0000 0.0000 0.0000 0.0000 0x00400000 11.859375 0x10000000 1.00830078125 0x7fffc000 2 0x00400140 0x7fff8000 0 0.005859375 192k 0.005859375 1051.49145507812 0.0000 
16384 241.726928710938 64.1953735351562 0.00164794921875 146683.4815 241.726928710938 241.691162109375 0.0357666015625 0.0201416015625 0 0 0.0001 0.0001 0.0000 0.0000 68.2002563476562 66.0927124023438 2.1075439453125 2.0919189453125 1.42437744140625 0 0.0309 0.0307 0.0209 0.0000 3.56768798828125 3.26007080078125 0.3076171875 0 0 0 0.0862 0.0000 0.0000 0.0000 241.726928710938 241.725891113281 0.00103759765625 0 0 0 0.0000 0.0000 0.0000 0.0000 68.2002563476562 68.1978149414062 0.00244140625 0 0 0 0.0000 0.0000 0.0000 0.0000 0x00400000 5.9306640625 0x10000000 0.504150390625 0x7fffc000 1 0x00400140 0x7fff8000 0 0.00390625 256k 0.00390625 1139.74389648438 0.0000 
32768 246.029327392578 66.2408447265625 0.001495361328125 164528.3469 246.029327392578 246.011291503906 0.018035888671875 0.010223388671875 0 0 0.0001 0.0000 0.0000 0.0000 70.2432861328125 68.0544738769531 2.18881225585938 2.18099975585938 1.41357421875 0 0.0312 0.0310 0.0201 0.0000 3.62042236328125 3.34140014648438 0.279022216796875 0 0 0 0.0771 0.0000 0.0000 0.0000 246.029327392578 246.02880859375 0.000518798828125 0 0 0 0.0000 0.0000 0.0000 0.0000 70.2432861328125 70.2410888671875 0.002197265625 0 0 0 0.0000 0.0000 0.0000 0.0000 0x00400000 2.9658203125 0x10000000 0.2520751953125 0x7fffc000 0.5 0x00400140 0x7fff8000 0 0.0029296875 384k 0.0029296875 1142.82464599609 0.0000 
65536 274.459671020508 73.0252838134766 0.001373291015625 199855.4333 274.459671020508 274.450912475586 0.008758544921875 0.004852294921875 0 0 0.0000 0.0000 0.0000 0.0000 77.0265045166016 74.4385986328125 2.58790588378906 2.58399963378906 1.66171264648438 0 0.0336 0.0335 0.0216 0.0000 4.25837707519531 3.99411010742188 0.264266967773438 0 0 0 0.0621 0.0000 0.0000 0.0000 274.459671020508 274.459411621094 0.0002593994140625 0 0 0 0.0000 0.0000 0.0000 0.0000 77.0265045166016 77.0233917236328 0.00311279296875 0.00115966796875 0.00079345703125 0 0.0000 0.0000 0.0000 0.0000 0x00400000 1.48291015625 0x10000000 0.12603759765625 0x7fffc000 0.25 0x00400140 0x7fff8000 0 0.00244140625 640k 0.00244140625 1261.00207519531 0.0000 
131072 278.941925048828 75.1707611083984 0.00127410888671875 218930.9940 278.941925048828 278.93741607666 0.00450897216796875 0.00255584716796875 0 0 0.0000 0.0000 0.0000 0.0000 79.1713714599609 76.4924850463867 2.67888641357422 2.67693328857422 1.65721893310547 0 0.0338 0.0338 0.0209 0.0000 4.34061431884766 4.08336639404297 0.257247924804688 0 0 0 0.0593 0.0000 0.0000 0.0000 278.941925048828 278.941795349121 0.00012969970703125 0 0 0 0.0000 0.0000 0.0000 0.0000 79.1713714599609 79.1528778076172 0.01849365234375 0.01751708984375 0.0102920532226562 0 0.0002 0.0002 0.0001 0.0000 0x00400000 0.741455078125 0x10000000 0.063018798828125 0x7fffc000 0.125 0x00400140 0x7fff8000 0 0.002197265625 1152k 0.002197265625 1278.66563415527 0.0000 
262144 295.448440551758 79.6614036560059 0.00109481811523438 269860.7526 295.448440551758 295.446193695068 0.00224685668945312 0.00127029418945312 0 0 0.0000 0.0000 0.0000 0.0000 83.6617088317871 80.7345771789551 2.92713165283203 2.92615509033203 1.78101348876953 0 0.0350 0.0350 0.0213 0.0000 4.71039199829102 4.4567756652832 0.253616333007812 0 0 0 0.0538 0.0000 0.0000 0.0000 295.448440551758 295.448375701904 6.4849853515625e-05 0 0 0 0.0000 0.0000 0.0000 0.0000 83.6617088317871 83.6410446166992 0.0206642150878906 0.0201759338378906 0.0115585327148438 0 0.0002 0.0002 0.0001 0.0000 0x00400000 0.3707275390625 0x10000000 0.0315093994140625 0x7fffc000 0.0625 0x00400140 0x7fff8000 0 0.0020751953125 2176k 0.0020751953125 1351.39477539062 0.0000 
524288 426.007179260254 116.2223777771 0.00079345703125 536900.1250 426.007179260254 426.0055103302 0.00166893005371094 0.00118064880371094 0 0 0.0000 0.0000 0.0000 0.0000 120.22253036499 116.887901306152 3.33462905883789 3.33414077758789 2.03547668457031 0 0.0277 0.0277 0.0169 0.0000 5.37177467346191 5.04896545410156 0.322809219360352 0.0728092193603516 0.0712490081787109 0 0.0601 0.0136 0.0133 0.0000 426.007179260254 426.007146835327 3.24249267578125e-05 0 0 0 0.0000 0.0000 0.0000 0.0000 120.22253036499 120.200160980225 0.022369384765625 0.022125244140625 0.0125408172607422 0 0.0002 0.0002 0.0001 0.0000 0x00400000 0.18536376953125 0x10000000 0.0157546997070312 0x7fffc000 0.03125 0x00400140 0x7fff8000 0 0.00202560424804688 4248k 0.0025177001953125 1945.61257553101 0.0000 
1048576 451.238024711609 124.118430137634 0.00412845611572266 109299.4602 451.238024711609 451.237145423889 0.000879287719726562 0.000635147094726562 0 0 0.0000 0.0000 0.0000 0.0000 128.11850643158 124.940497398376 3.17800903320312 3.17776489257812 1.90672588348389 0 0.0248 0.0248 0.0149 0.0000 5.08561420440674 4.46842288970947 0.617191314697266 0.492191314697266 0.439098358154297 0 0.1214 0.0968 0.0863 0.0000 451.238024711609 451.238008499146 1.62124633789062e-05 0 0 0 0.0000 0.0000 0.0000 0.0000 128.11850643158 128.096070289612 0.0224361419677734 0.0223140716552734 0.0125904083251953 0 0.0002 0.0002 0.0001 0.0000 0x00400000 0.092681884765625 0x10000000 0.00787734985351562 0x7fffc000 0.015625 0x00400140 0x7fff8000 0 0.00198936462402344 8344k 0.0764312744140625 2061.7585105896 0.0000 
2097152 493.870913505554 135.035810947418 0.00278615951538086 177258.6640 493.870913505554 493.8704829216 0.000430583953857422 0.000308513641357422 0 0 0.0000 0.0000 0.0000 0.0000 139.035849094391 135.703738212585 3.33211088180542 3.33198881149292 2.03402376174927 0 0.0240 0.0240 0.0146 0.0000 5.36656522750854 4.7421875 0.624377727508545 0.561877727508545 0.46986198425293 0 0.1163 0.1047 0.0876 0.0000 493.870913505554 493.870905399323 8.10623168945312e-06 0 0 0 0.0000 0.0000 0.0000 0.0000 139.035849094391 139.004842281342 0.0310068130493164 0.0309457778930664 0.0126137733459473 0 0.0002 0.0002 0.0001 0.0000 0x00400000 0.0463409423828125 0x10000000 0.00393867492675781 0x7fffc000 0.0078125 0x00400140 0x7fff8000 0 0.00197410583496094 16560k 0.0405049324035645 2253.840051651 0.0000 
4194304 521.372492790222 144.085593223572 0.00209832191467285 248471.1660 521.372492790222 521.372272968292 0.000219821929931641 0.000158786773681641 0 0 0.0000 0.0000 0.0000 0.0000 148.085612297058 144.908005714417 3.1776065826416 3.17754554748535 1.90679907798767 0 0.0215 0.0215 0.0129 0.0000 5.0846254825592 4.45901942253113 0.625606060028076 0.594356060028076 0.485263347625732 0 0.1230 0.1169 0.0954 0.0000 521.372492790222 521.372488737106 4.05311584472656e-06 0 0 0 0.0000 0.0000 0.0000 0.0000 148.085612297058 147.974236249924 0.111376047134399 0.111345529556274 0.0126183032989502 0 0.0008 0.0008 0.0001 0.0000 0x00400000 0.0231704711914062 0x10000000 0.00196933746337891 0x7fffc000 0.00390625 0x00400140 0x7fff8000 0 0.00196647644042969 32992k 0.0205790996551514 2381.80354547501 0.0000 
