#set_size_in_keys sim_num_insn sim_num_refs sim_elapsed_time sim_inst_rate il1.accesses il1.hits il1.misses il1.replacements il1.writebacks il1.invalidations il1.miss_rate il1.repl_rate il1.wb_rate il1.inv_rate dl1.accesses dl1.hits dl1.misses dl1.replacements dl1.writebacks dl1.invalidations dl1.miss_rate dl1.repl_rate dl1.wb_rate dl1.inv_rate dl2.accesses dl2.hits dl2.misses dl2.replacements dl2.writebacks dl2.invalidations dl2.miss_rate dl2.repl_rate dl2.wb_rate dl2.inv_rate itlb.accesses itlb.hits itlb.misses itlb.replacements itlb.writebacks itlb.invalidations itlb.miss_rate itlb.repl_rate itlb.wb_rate itlb.inv_rate dtlb.accesses dtlb.hits dtlb.misses dtlb.replacements dtlb.writebacks dtlb.invalidations dtlb.miss_rate dtlb.repl_rate dtlb.wb_rate dtlb.inv_rate ld_text_base ld_text_size ld_data_base ld_data_size ld_stack_base ld_stack_size ld_prog_entry ld_environ_base ld_target_big_endian mem.page_count mem.page_mem mem.ptab_misses mem.ptab_accesses mem.ptab_miss_rate
4096 210.08203125 55.925048828125 0.002197265625 95610.6667 210.08203125 209.9443359375 0.1376953125 0.0751953125 0 0 0.0007 0.0004 0.0000 0.0000 59.944580078125 56.607177734375 3.33740234375 3.27490234375 1.828125 0 0.0557 0.0546 0.0305 0.0000 5.30322265625 4.825927734375 0.477294921875 0 0 0 0.0900 0.0000 0.0000 0.0000 210.08203125 210.078125 0.00390625 0 0 0 0.0000 0.0000 0.0000 0.0000 59.944580078125 59.940673828125 0.00390625 0 0 0 0.0001 0.0000 0.0000 0.0000 0x00400000 22.83203125 0x10000000 2.0478515625 0x7fffc000 4 0x00400140 0x7fff8000 0 0.009521484375 156k 0.009521484375 1100.94921875 0.0000 
8192 213.710693359375 57.61328125 0.0018310546875 116714.5333 213.710693359375 213.63818359375 0.072509765625 0.041259765625 0 0 0.0003 0.0002 0.0000 0.0000 61.623046875 58.3426513671875 3.2803955078125 3.2491455078125 1.7896728515625 0 0.0532 0.0527 0.0290 0.0000 5.142578125 4.7764892578125 0.3660888671875 0 0 0 0.0712 0.0000 0.0000 0.0000 213.710693359375 213.708740234375 0.001953125 0 0 0 0.0000 0.0000 0.0000 0.0000 61.623046875 61.6201171875 0.0029296875 0 0 0 0.0000 0.0000 0.0000 0.0000 0x00400000 11.419921875 0x10000000 1.02392578125 0x7fffc000 2 0x00400140 0x7fff8000 0 0.0057373046875 188k 0.0057373046875 1048.47827148438 0.0000 
16384 241.600891113281 64.1736450195312 0.00152587890625 158335.5600 241.600891113281 241.566772460938 0.03411865234375 0.01849365234375 0 0 0.0001 0.0001 0.0000 0.0000 68.1785278320312 64.425537109375 3.75299072265625 3.73736572265625 2.02215576171875 0 0.0550 0.0548 0.0297 0.0000 5.80926513671875 5.5028076171875 0.30645751953125 0 0 0 0.0528 0.0000 0.0000 0.0000 241.600891113281 241.599914550781 0.0009765625 0 0 0 0.0000 0.0000 0.0000 0.0000 68.1785278320312 68.1760864257812 0.00244140625 0 0 0 0.0000 0.0000 0.0000 0.0000 0x00400000 5.7109375 0x10000000 0.511962890625 0x7fffc000 1 0x00400140 0x7fff8000 0 0.00384521484375 252k 0.00384521484375 1137.96118164062 0.0000 
32768 245.952819824219 66.2295532226562 0.001373291015625 179097.3778 245.952819824219 245.934661865234 0.018157958984375 0.010345458984375 0 0 0.0001 0.0000 0.0000 0.0000 70.2319946289062 66.4938354492188 3.7381591796875 3.7303466796875 2.01168823242188 0 0.0532 0.0531 0.0286 0.0000 5.76800537109375 5.48892211914062 0.279083251953125 0 0 0 0.0484 0.0000 0.0000 0.0000 245.952819824219 245.952331542969 0.00048828125 0 0 0 0.0000 0.0000 0.0000 0.0000 70.2319946289062 70.2297973632812 0.002197265625 0 0 0 0.0000 0.0000 0.0000 0.0000 0x00400000 2.85595703125 0x10000000 0.2559814453125 0x7fffc000 0.5 0x00400140 0x7fff8000 0 0.002899169921875 380k 0.002899169921875 1141.87847900391 0.0000 
65536 274.411895751953 73.0207672119141 0.00128173828125 214093.5476 274.411895751953 274.403137207031 0.008758544921875 0.004852294921875 0 0 0.0000 0.0000 0.0000 0.0000 77.0219879150391 72.7901000976562 4.23188781738281 4.22798156738281 2.25816345214844 0 0.0549 0.0549 0.0293 0.0000 6.49880981445312 6.23451232910156 0.264297485351562 0 0 0 0.0407 0.0000 0.0000 0.0000 274.411895751953 274.411651611328 0.000244140625 0 0 0 0.0000 0.0000 0.0000 0.0000 77.0219879150391 77.0190124511719 0.0029754638671875 0.0010223388671875 0.0007171630859375 0 0.0000 0.0000 0.0000 0.0000 0x00400000 1.427978515625 0x10000000 0.12799072265625 0x7fffc000 0.25 0x00400140 0x7fff8000 0 0.0024261474609375 636k 0.0024261474609375 1260.4931640625 0.0000 
131072 278.89151763916 75.165283203125 0.0011749267578125 237369.2792 278.89151763916 278.886978149414 0.00453948974609375 0.00258636474609375 0 0 0.0000 0.0000 0.0000 0.0000 79.1658935546875 74.9383010864258 4.22759246826172 4.22563934326172 2.25469207763672 0 0.0534 0.0534 0.0285 0.0000 6.48682403564453 6.22956085205078 0.25726318359375 0 0 0 0.0397 0.0000 0.0000 0.0000 278.89151763916 278.891395568848 0.0001220703125 0 0 0 0.0000 0.0000 0.0000 0.0000 79.1658935546875 79.1493606567383 0.0165328979492188 0.0155563354492188 0.00931549072265625 0 0.0002 0.0002 0.0001 0.0000 0x00400000 0.7139892578125 0x10000000 0.063995361328125 0x7fffc000 0.125 0x00400140 0x7fff8000 0 0.00218963623046875 1148k 0.00218963623046875 1278.29866027832 0.0000 
262144 295.410015106201 79.6590766906738 0.00101089477539062 292226.2755 295.410015106201 295.406784057617 0.00323104858398438 0.00225448608398438 0 0 0.0000 0.0000 0.0000 0.0000 83.6594696044922 79.1835479736328 4.47592163085938 4.47494506835938 2.37873458862305 0 0.0535 0.0535 0.0284 0.0000 6.85788726806641 6.60340118408203 0.254486083984375 0 0 0 0.0371 0.0000 0.0000 0.0000 295.410015106201 295.409942626953 7.2479248046875e-05 0 0 0 0.0000 0.0000 0.0000 0.0000 83.6594696044922 83.640754699707 0.0187149047851562 0.0182266235351562 0.0105819702148438 0 0.0002 0.0002 0.0001 0.0000 0x00400000 0.35699462890625 0x10000000 0.0319976806640625 0x7fffc000 0.0625 0x00400140 0x7fff8000 0 0.0020751953125 2176k 0.0020751953125 1351.15940093994 0.0000 
524288 423.965431213379 114.219366073608 0.000728607177734375 581884.7853 423.965431213379 423.963754653931 0.00167655944824219 0.00118827819824219 0 0 0.0000 0.0000 0.0000 0.0000 118.219518661499 113.240428924561 4.97908973693848 4.97860145568848 2.63118934631348 0 0.0421 0.0421 0.0223 0.0000 7.6119556427002 7.28940200805664 0.322553634643555 0.0725536346435547 0.0709877014160156 0 0.0424 0.0095 0.0093 0.0000 423.965431213379 423.965400695801 3.0517578125e-05 0 0 0 0.0000 0.0000 0.0000 0.0000 118.219518661499 118.199110031128 0.0204086303710938 0.0201644897460938 0.0115604400634766 0 0.0002 0.0002 0.0001 0.0000 0x00400000 0.178497314453125 0x10000000 0.0159988403320312 0x7fffc000 0.03125 0x00400140 0x7fff8000 0 0.00202369689941406 4244k 0.00211906433105469 1933.40096282959 0.0000 
1048576 449.204507827759 122.116713523865 0.000426292419433594 1053747.3512 449.204507827759 449.203625679016 0.000882148742675781 0.000638008117675781 0 0 0.0000 0.0000 0.0000 0.0000 126.11678981781 121.390617370605 4.72617244720459 4.72592830657959 2.50393581390381 0 0.0375 0.0375 0.0199 0.0000 7.23099040985107 6.61379814147949 0.617192268371582 0.492192268371582 0.439096450805664 0 0.0854 0.0681 0.0607 0.0000 449.204507827759 449.20449256897 1.52587890625e-05 0 0 0 0.0000 0.0000 0.0000 0.0000 126.11678981781 126.096314430237 0.0204753875732422 0.0203533172607422 0.0116100311279297 0 0.0002 0.0002 0.0001 0.0000 0x00400000 0.0892486572265625 0x10000000 0.00799942016601562 0x7fffc000 0.015625 0x00400140 0x7fff8000 0 0.00198841094970703 8340k 0.0777549743652344 2049.60171127319 0.0000 
2097152 491.837174892426 133.034518718719 0.000285625457763672 1721965.4674 491.837174892426 491.83674287796 0.000432014465332031 0.000309944152832031 0 0 0.0000 0.0000 0.0000 0.0000 137.034556865692 132.058246135712 4.97631072998047 4.97618865966797 2.62948179244995 0 0.0363 0.0363 0.0192 0.0000 7.60622453689575 6.98184776306152 0.624376773834229 0.561876773834229 0.469861030578613 0 0.0821 0.0739 0.0618 0.0000 491.837174892426 491.837167263031 7.62939453125e-06 0 0 0 0.0000 0.0000 0.0000 0.0000 137.034556865692 137.005510807037 0.0290460586547852 0.0289850234985352 0.0116333961486816 0 0.0002 0.0002 0.0001 0.0000 0x00400000 0.0446243286132812 0x10000000 0.00399971008300781 0x7fffc000 0.0078125 0x00400140 0x7fff8000 0 0.00197362899780273 16556k 0.0394668579101562 2241.69286346436 0.0000 
4194304 519.334996700287 142.083025455475 0.000216245651245117 2401597.4135 519.334996700287 519.334776163101 0.000220537185668945 0.000159502029418945 0 0 0.0000 0.0000 0.0000 0.0000 146.083044528961 141.357555150986 4.72548937797546 4.72542834281921 2.5037944316864 0 0.0323 0.0323 0.0171 0.0000 7.22950434684753 6.60390067100525 0.625603675842285 0.594353675842285 0.485261917114258 0 0.0865 0.0822 0.0671 0.0000 519.334996700287 519.33499288559 3.814697265625e-06 0 0 0 0.0000 0.0000 0.0000 0.0000 146.083044528961 145.973629236221 0.109415292739868 0.109384775161743 0.0116379261016846 0 0.0007 0.0007 0.0001 0.0000 0x00400000 0.0223121643066406 0x10000000 0.00199985504150391 0x7fffc000 0.00390625 0x00400140 0x7fff8000 0 0.00196623802185059 32988k 0.0209102630615234 2369.6436009407 0.0000 
