#set_size_in_keys sim_num_insn sim_num_refs sim_elapsed_time sim_inst_rate sim_num_branches sim_IPB bpred_2lev.lookups bpred_2lev.updates bpred_2lev.addr_hits bpred_2lev.dir_hits bpred_2lev.misses bpred_2lev.jr_hits bpred_2lev.jr_seen bpred_2lev.jr_non_ras_hits.PP bpred_2lev.jr_non_ras_seen.PP bpred_2lev.bpred_addr_rate bpred_2lev.bpred_dir_rate bpred_2lev.bpred_jr_rate bpred_2lev.bpred_jr_non_ras_rate.PP bpred_2lev.retstack_pushes bpred_2lev.retstack_pops bpred_2lev.used_ras.PP bpred_2lev.ras_hits.PP bpred_2lev.ras_rate.PP
4096 11440.73046875 5137.30737304688 0.001220703125 9372246.4000 1929.67041015625 5.9289 1929.67041015625 1929.67041015625 1545.11596679688 1545.138671875 384.53173828125 0.013427734375 0.013671875 0 0 0.8007 0.8007 0.9821 <error: 0.01416015625 0.013671875 0.013671875 0.013427734375 0.9821 
8192 22867.5860595703 10264.8323974609 0.0029296875 7805469.3750 3860.78649902344 5.9230 3860.78649902344 3860.78649902344 3071.89599609375 3071.90869140625 788.877807617188 0.0067138671875 0.0068359375 0 0 0.7957 0.7957 0.9821 <error: 0.007080078125 0.0068359375 0.0068359375 0.0067138671875 0.9821 
16384 45991.6572265625 20672.3667602539 0.00579833984375 7931866.4421 7751.59399414062 5.9332 7751.59399414062 7751.59399414062 6182.39556884766 6182.40161132812 1569.1923828125 0.00335693359375 0.00341796875 0 0 0.7976 0.7976 0.9821 <error: 0.0035400390625 0.00341796875 0.00341796875 0.00335693359375 0.9821 
32768 90740.8870849609 40790.740020752 0.01141357421875 7950260.3957 15280.4344177246 5.9384 15280.4344177246 15280.4344177246 12196.7475585938 12196.7505493164 3083.6838684082 0.001678466796875 0.001708984375 0 0 0.7982 0.7982 0.9821 <error: 0.00177001953125 0.001708984375 0.001708984375 0.001678466796875 0.9821 
65536 182223.438964844 81861.3994598389 0.0204620361328125 8905440.1909 30723.2613220215 5.9311 30723.2613220215 30723.2613220215 24683.2826538086 24683.2841644287 6039.97715759277 0.0008392333984375 0.0008544921875 0 0 0.8034 0.8034 0.9821 <error: 0.000885009765625 0.0008544921875 0.0008544921875 0.0008392333984375 0.9821 
