#set_size_in_keys sim_num_insn sim_num_refs sim_elapsed_time sim_inst_rate sim_num_branches sim_IPB bpred_bimod.lookups bpred_bimod.updates bpred_bimod.addr_hits bpred_bimod.dir_hits bpred_bimod.misses bpred_bimod.jr_hits bpred_bimod.jr_seen bpred_bimod.jr_non_ras_hits.PP bpred_bimod.jr_non_ras_seen.PP bpred_bimod.bpred_addr_rate bpred_bimod.bpred_dir_rate bpred_bimod.bpred_jr_rate bpred_bimod.bpred_jr_non_ras_rate.PP bpred_bimod.retstack_pushes bpred_bimod.retstack_pops bpred_bimod.used_ras.PP bpred_bimod.ras_hits.PP bpred_bimod.ras_rate.PP
4096 15900.9565429688 4099.88891601562 0.00390625 4070644.8750 2564.17895507812 6.2012 2564.17895507812 2564.17895507812 2554.98754882812 2555.01049804688 9.16845703125 0.013427734375 0.013671875 0 0 0.9964 0.9964 0.9821 <error: 0.01416015625 0.013671875 0.013671875 0.013427734375 0.9821 
8192 31773.0256347656 8195.44445800781 0.0079345703125 4004378.8615 5124.08947753906 6.2007 5124.08947753906 5124.08947753906 5114.0634765625 5114.07495117188 10.0145263671875 0.0067138671875 0.0068359375 0 0 0.9980 0.9980 0.9821 <error: 0.007080078125 0.0068359375 0.0068359375 0.0067138671875 0.9821 
16384 63517.239074707 16387.2222290039 0.0157470703125 4033590.8721 10244.0447387695 6.2004 10244.0447387695 10244.0447387695 10233.4747314453 10233.4805297852 10.564208984375 0.00335693359375 0.00341796875 0 0 0.9990 0.9990 0.9821 <error: 0.0035400390625 0.00341796875 0.00341796875 0.00335693359375 0.9821 
32768 127005.646850586 32771.111114502 0.03155517578125 4024875.2766 20484.0223693848 6.2002 20484.0223693848 20484.0223693848 20472.8614807129 20472.8643493652 11.1580200195312 0.001678466796875 0.001708984375 0 0 0.9995 0.9995 0.9821 <error: 0.00177001953125 0.001708984375 0.001708984375 0.001678466796875 0.9821 
65536 253982.154968262 65539.055557251 0.0271759033203125 9345858.7917 40964.0111846924 6.2001 40964.0111846924 40964.0111846924 40952.2262878418 40952.227722168 11.7834625244141 0.0008392333984375 0.0008544921875 0 0 0.9997 0.9997 0.9821 <error: 0.000885009765625 0.0008544921875 0.0008544921875 0.0008392333984375 0.9821 
