#set_size_in_keys sim_num_insn sim_num_refs sim_elapsed_time sim_inst_rate sim_num_branches sim_IPB bpred_2lev.lookups bpred_2lev.updates bpred_2lev.addr_hits bpred_2lev.dir_hits bpred_2lev.misses bpred_2lev.jr_hits bpred_2lev.jr_seen bpred_2lev.jr_non_ras_hits.PP bpred_2lev.jr_non_ras_seen.PP bpred_2lev.bpred_addr_rate bpred_2lev.bpred_dir_rate bpred_2lev.bpred_jr_rate bpred_2lev.bpred_jr_non_ras_rate.PP bpred_2lev.retstack_pushes bpred_2lev.retstack_pops bpred_2lev.used_ras.PP bpred_2lev.ras_hits.PP bpred_2lev.ras_rate.PP
4096 15900.9565429688 4099.88891601562 0.00390625 4070644.8750 2564.17895507812 6.2012 2564.17895507812 2564.17895507812 2554.9462890625 2554.97216796875 9.206787109375 0.013427734375 0.013671875 0 0 0.9964 0.9964 0.9821 <error: 0.01416015625 0.013671875 0.013671875 0.013427734375 0.9821 
8192 31773.0256347656 8195.44445800781 0.0081787109375 3884845.1642 5124.08947753906 6.2007 5124.08947753906 5124.08947753906 5114.07385253906 5114.08679199219 10.002685546875 0.0067138671875 0.0068359375 0 0 0.9980 0.9980 0.9821 <error: 0.007080078125 0.0068359375 0.0068359375 0.0067138671875 0.9821 
16384 63517.239074707 16387.2222290039 0.01617431640625 3927043.1887 10244.0447387695 6.2004 10244.0447387695 10244.0447387695 10233.5223999023 10233.5289916992 10.5157470703125 0.00335693359375 0.00341796875 0 0 0.9990 0.9990 0.9821 <error: 0.0035400390625 0.00341796875 0.00341796875 0.00335693359375 0.9821 
32768 127005.646850586 32771.111114502 0.01568603515625 8096733.5331 20484.0223693848 6.2002 20484.0223693848 20484.0223693848 20472.9870910645 20472.9903564453 11.0320129394531 0.001678466796875 0.001708984375 0 0 0.9995 0.9995 0.9821 <error: 0.00177001953125 0.001708984375 0.001708984375 0.001678466796875 0.9821 
65536 253982.154968262 65539.055557251 0.0284576416015625 8924919.3072 40964.0111846924 6.2001 40964.0111846924 40964.0111846924 40952.3557281494 40952.3573760986 11.65380859375 0.0008392333984375 0.0008544921875 0 0 0.9997 0.9997 0.9821 <error: 0.000885009765625 0.0008544921875 0.0008544921875 0.0008392333984375 0.9821 
