#set_size_in_keys sim_num_insn sim_num_refs sim_elapsed_time sim_inst_rate sim_num_branches sim_IPB bpred_2lev.lookups bpred_2lev.updates bpred_2lev.addr_hits bpred_2lev.dir_hits bpred_2lev.misses bpred_2lev.jr_hits bpred_2lev.jr_seen bpred_2lev.jr_non_ras_hits.PP bpred_2lev.jr_non_ras_seen.PP bpred_2lev.bpred_addr_rate bpred_2lev.bpred_dir_rate bpred_2lev.bpred_jr_rate bpred_2lev.bpred_jr_non_ras_rate.PP bpred_2lev.retstack_pushes bpred_2lev.retstack_pops bpred_2lev.used_ras.PP bpred_2lev.ras_hits.PP bpred_2lev.ras_rate.PP
4096 113.745849609375 29.9248046875 0.000244140625 465903.0000 18.761962890625 6.0626 18.761962890625 18.761962890625 12.44140625 12.470703125 6.291259765625 0.120849609375 0.120849609375 0 0 0.6631 0.6647 1.0000 <error: 0.121337890625 0.120849609375 0.120849609375 0.120849609375 1.0000 
8192 124.467163085938 31.94775390625 0.0001220703125 1019635.0000 20.670654296875 6.0214 20.670654296875 20.670654296875 13.9251708984375 13.9395751953125 6.7310791015625 0.116455078125 0.116455078125 0 0 0.6737 0.6744 1.0000 <error: 0.11669921875 0.116455078125 0.116455078125 0.116455078125 1.0000 
16384 132.07958984375 33.6799926757812 6.103515625e-05 2163992.0000 22.1214599609375 5.9707 22.1214599609375 22.1214599609375 14.9987182617188 15.0059814453125 7.115478515625 0.11065673828125 0.11065673828125 0 0 0.6780 0.6783 1.0000 <error: 0.11077880859375 0.11065673828125 0.11065673828125 0.11065673828125 1.0000 
32768 142.413269042969 35.81494140625 3.0517578125e-05 4666598.0000 23.9465026855469 5.9471 23.9465026855469 23.9465026855469 16.4577941894531 16.4613952636719 7.485107421875 0.11016845703125 0.11016845703125 0 0 0.6873 0.6874 1.0000 <error: 0.1102294921875 0.11016845703125 0.11016845703125 0.11016845703125 1.0000 
65536 152.617004394531 38.1328582763672 1.52587890625e-05 10001908.0000 25.7924346923828 5.9171 25.7924346923828 25.7924346923828 17.7337036132812 17.7355194091797 8.05691528320312 0.107803344726562 0.107803344726562 0 0 0.6876 0.6876 1.0000 <error: 0.107833862304688 0.107803344726562 0.107803344726562 0.107803344726562 1.0000 
131072 158.389213562012 39.7159271240234 2.288818359375e-05 6920130.3333 26.829345703125 5.9036 26.829345703125 26.829345703125 18.2007293701172 18.2016296386719 8.62771606445312 0.107421875 0.107421875 0 0 0.6784 0.6784 1.0000 <error: 0.107437133789062 0.107421875 0.107421875 0.107421875 1.0000 
262144 171.741611480713 42.4147491455078 2.288818359375e-05 7503505.5000 29.1704711914062 5.8875 29.1704711914062 29.1704711914062 20.3056411743164 20.3060836791992 8.86438751220703 0.107524871826172 0.107524871826172 0 0 0.6961 0.6961 1.0000 <error: 0.107532501220703 0.107524871826172 0.107524871826172 0.107524871826172 1.0000 
524288 179.478385925293 44.3612022399902 2.288818359375e-05 7841530.3333 30.6060485839844 5.8641 30.6060485839844 30.6060485839844 21.1489810943604 21.1492137908936 9.45683479309082 0.107290267944336 0.107290267944336 0 0 0.6910 0.6910 1.0000 <error: 0.107294082641602 0.107290267944336 0.107290267944336 0.107290267944336 1.0000 
1048576 191.039436340332 46.8030109405518 2.47955322265625e-05 7704591.0769 32.6235456466675 5.8559 32.6235456466675 32.6235456466675 22.8495149612427 22.8496313095093 9.7739143371582 0.107254028320312 0.107254028320312 0 0 0.7004 0.7004 1.0000 <error: 0.107255935668945 0.107254028320312 0.107254028320312 0.107254028320312 1.0000 
2097152 272.639992713928 68.578905582428 3.57627868652344e-05 7623566.7467 43.165506362915 6.3162 43.165506362915 43.165506362915 31.9725842475891 31.9726696014404 11.1928367614746 0.115317821502686 0.115318298339844 0 4.76837158203125e-07 0.7407 0.7407 1.0000 0.0000 0.115318775177002 0.115317821502686 0.115317821502686 0.115317821502686 1.0000 
4194304 290.834966897964 75.0743036270142 3.814697265625e-05 7624064.1562 46.5023698806763 6.2542 46.5023698806763 46.5023698806763 35.506796836853 35.5068395137787 10.9955303668976 0.107814788818359 0.107815027236938 0 2.38418579101562e-07 0.7635 0.7635 1.0000 0.0000 0.107815265655518 0.107814788818359 0.107814788818359 0.107814788818359 1.0000 
