#set_size_in_keys sim_num_insn sim_num_refs sim_elapsed_time sim_inst_rate sim_num_branches sim_IPB bpred_2lev.lookups bpred_2lev.updates bpred_2lev.addr_hits bpred_2lev.dir_hits bpred_2lev.misses bpred_2lev.jr_hits bpred_2lev.jr_seen bpred_2lev.jr_non_ras_hits.PP bpred_2lev.jr_non_ras_seen.PP bpred_2lev.bpred_addr_rate bpred_2lev.bpred_dir_rate bpred_2lev.bpred_jr_rate bpred_2lev.bpred_jr_non_ras_rate.PP bpred_2lev.retstack_pushes bpred_2lev.retstack_pops bpred_2lev.used_ras.PP bpred_2lev.ras_hits.PP bpred_2lev.ras_rate.PP
4096 113.745849609375 29.9248046875 0.000244140625 465903.0000 18.761962890625 6.0626 18.761962890625 18.761962890625 12.509765625 12.53857421875 6.223388671875 0.120849609375 0.120849609375 0 0 0.6668 0.6683 1.0000 <error: 0.121337890625 0.120849609375 0.120849609375 0.120849609375 1.0000 
8192 124.467163085938 31.94775390625 0.0001220703125 1019635.0000 20.670654296875 6.0214 20.670654296875 20.670654296875 13.9913330078125 14.00537109375 6.665283203125 0.116455078125 0.116455078125 0 0 0.6769 0.6775 1.0000 <error: 0.11669921875 0.116455078125 0.116455078125 0.116455078125 1.0000 
16384 132.07958984375 33.6799926757812 6.103515625e-05 2163992.0000 22.1214599609375 5.9707 22.1214599609375 22.1214599609375 15.07177734375 15.0791015625 7.0423583984375 0.11065673828125 0.11065673828125 0 0 0.6813 0.6817 1.0000 <error: 0.11077880859375 0.11065673828125 0.11065673828125 0.11065673828125 1.0000 
32768 142.413269042969 35.81494140625 3.0517578125e-05 4666598.0000 23.9465026855469 5.9471 23.9465026855469 23.9465026855469 16.5311889648438 16.5347290039062 7.41177368164062 0.11016845703125 0.11016845703125 0 0 0.6903 0.6905 1.0000 <error: 0.1102294921875 0.11016845703125 0.11016845703125 0.11016845703125 1.0000 
65536 152.617004394531 38.1328582763672 3.0517578125e-05 5000954.0000 25.7924346923828 5.9171 25.7924346923828 25.7924346923828 17.8056335449219 17.8074340820312 7.98500061035156 0.107803344726562 0.107803344726562 0 0 0.6903 0.6904 1.0000 <error: 0.107833862304688 0.107803344726562 0.107803344726562 0.107803344726562 1.0000 
131072 158.389213562012 39.7159271240234 1.52587890625e-05 10380195.5000 26.829345703125 5.9036 26.829345703125 26.829345703125 18.2728881835938 18.2737884521484 8.55555725097656 0.107421875 0.107421875 0 0 0.6811 0.6811 1.0000 <error: 0.107437133789062 0.107421875 0.107421875 0.107421875 1.0000 
262144 171.741611480713 42.4147491455078 2.288818359375e-05 7503505.5000 29.1704711914062 5.8875 29.1704711914062 29.1704711914062 20.3811836242676 20.3816032409668 8.78886795043945 0.107524871826172 0.107524871826172 0 0 0.6987 0.6987 1.0000 <error: 0.107532501220703 0.107524871826172 0.107524871826172 0.107524871826172 1.0000 
524288 179.478385925293 44.3612022399902 2.288818359375e-05 7841530.3333 30.6060485839844 5.8641 30.6060485839844 30.6060485839844 21.2234153747559 21.2236328125 9.38241577148438 0.107290267944336 0.107290267944336 0 0 0.6934 0.6934 1.0000 <error: 0.107294082641602 0.107290267944336 0.107290267944336 0.107290267944336 1.0000 
1048576 191.039436340332 46.8030109405518 2.38418579101562e-05 8012774.7200 32.6235456466675 5.8559 32.6235456466675 32.6235456466675 22.9248838424683 22.9249935150146 9.69855213165283 0.107254028320312 0.107254028320312 0 0 0.7027 0.7027 1.0000 <error: 0.107255935668945 0.107254028320312 0.107254028320312 0.107254028320312 1.0000 
2097152 272.639992713928 68.578905582428 3.57627868652344e-05 7623566.7467 43.165506362915 6.3162 43.165506362915 43.165506362915 32.1099996566772 32.1100821495056 11.0554242134094 0.115317821502686 0.115318298339844 0 4.76837158203125e-07 0.7439 0.7439 1.0000 0.0000 0.115318775177002 0.115317821502686 0.115317821502686 0.115317821502686 1.0000 
4194304 290.834966897964 75.0743036270142 3.79085540771484e-05 7672014.2453 46.5023698806763 6.2542 46.5023698806763 46.5023698806763 35.7182321548462 35.718273639679 10.7840962409973 0.107814788818359 0.107815027236938 0 2.38418579101562e-07 0.7681 0.7681 1.0000 0.0000 0.107815265655518 0.107814788818359 0.107814788818359 0.107814788818359 1.0000 
