#set_size_in_keys sim_num_insn sim_num_refs sim_elapsed_time sim_inst_rate il1.accesses il1.hits il1.misses il1.replacements il1.writebacks il1.invalidations il1.miss_rate il1.repl_rate il1.wb_rate il1.inv_rate dl1.accesses dl1.hits dl1.misses dl1.replacements dl1.writebacks dl1.invalidations dl1.miss_rate dl1.repl_rate dl1.wb_rate dl1.inv_rate dl2.accesses dl2.hits dl2.misses dl2.replacements dl2.writebacks dl2.invalidations dl2.miss_rate dl2.repl_rate dl2.wb_rate dl2.inv_rate itlb.accesses itlb.hits itlb.misses itlb.replacements itlb.writebacks itlb.invalidations itlb.miss_rate itlb.repl_rate itlb.wb_rate itlb.inv_rate dtlb.accesses dtlb.hits dtlb.misses dtlb.replacements dtlb.writebacks dtlb.invalidations dtlb.miss_rate dtlb.repl_rate dtlb.wb_rate dtlb.inv_rate ld_text_base ld_text_size ld_data_base ld_data_size ld_stack_base ld_stack_size ld_prog_entry ld_environ_base ld_target_big_endian mem.page_count mem.page_mem mem.ptab_misses mem.ptab_accesses mem.ptab_miss_rate
4096 217.759033203125 57.16748046875 0.000244140625 891941.0000 217.759033203125 217.655029296875 0.10400390625 0.0498046875 0 0 0.0005 0.0002 0.0000 0.0000 61.18701171875 55.9150390625 5.27197265625 5.20947265625 2.662353515625 0 0.0862 0.0851 0.0435 0.0000 8.038330078125 7.597900390625 0.4404296875 0.025390625 0.016845703125 0 0.0548 0.0032 0.0021 0.0000 217.759033203125 217.756591796875 0.00244140625 0 0 0 0.0000 0.0000 0.0000 0.0000 61.18701171875 61.183349609375 0.003662109375 0 0 0 0.0001 0.0000 0.0000 0.0000 0x00400000 18.046875 0x10000000 2.0126953125 0x7fffc000 4 0x00400140 0x7fff8000 0 0.00830078125 136k 0.00830078125 1105.35986328125 0.0000 
8192 233.949951171875 59.7080078125 0.0001220703125 1916518.0000 233.949951171875 233.898681640625 0.05126953125 0.028076171875 0 0 0.0002 0.0001 0.0000 0.0000 63.7177734375 59.16845703125 4.54931640625 4.51806640625 2.2982177734375 0 0.0714 0.0709 0.0361 0.0000 6.8988037109375 6.5572509765625 0.341552734375 0.0125732421875 0.0086669921875 0 0.0495 0.0018 0.0013 0.0000 233.949951171875 233.94873046875 0.001220703125 0 0 0 0.0000 0.0000 0.0000 0.0000 63.7177734375 63.7149658203125 0.0028076171875 0 0 0 0.0000 0.0000 0.0000 0.0000 0x00400000 9.02734375 0x10000000 1.00634765625 0x7fffc000 2 0x00400140 0x7fff8000 0 0.005126953125 168k 0.005126953125 1119.23364257812 0.0000 
16384 255.540710449219 66.4793701171875 6.103515625e-05 4186779.0000 255.540710449219 255.512634277344 0.028076171875 0.01544189453125 0 0 0.0001 0.0001 0.0000 0.0000 70.4842529296875 65.5746459960938 4.90960693359375 4.89398193359375 2.46429443359375 0 0.0697 0.0694 0.0350 0.0000 7.4019775390625 7.10394287109375 0.29803466796875 0.0084228515625 0.00604248046875 0 0.0403 0.0011 0.0008 0.0000 255.540710449219 255.5400390625 0.00067138671875 0 0 0 0.0000 0.0000 0.0000 0.0000 70.4842529296875 70.4818725585938 0.00238037109375 0 0 0 0.0000 0.0000 0.0000 0.0000 0x00400000 4.5146484375 0x10000000 0.503173828125 0x7fffc000 1 0x00400140 0x7fff8000 0 0.0035400390625 232k 0.0035400390625 1191.13635253906 0.0000 
32768 272.337554931641 69.3616638183594 6.103515625e-05 4461978.5000 272.337554931641 272.324645996094 0.012908935546875 0.007110595703125 0 0 0.0000 0.0000 0.0000 0.0000 73.3641052246094 68.0760192871094 5.2880859375 5.2802734375 2.65020751953125 0 0.0721 0.0720 0.0361 0.0000 7.95120239257812 7.67822265625 0.272979736328125 0.0037841796875 0.00274658203125 0 0.0343 0.0005 0.0003 0.0000 272.337554931641 272.337219238281 0.000335693359375 0 0 0 0.0000 0.0000 0.0000 0.0000 73.3641052246094 73.3619384765625 0.002166748046875 0 0 0 0.0000 0.0000 0.0000 0.0000 0x00400000 2.2578125 0x10000000 0.2515869140625 0x7fffc000 0.5 0x00400140 0x7fff8000 0 0.00274658203125 360k 0.00274658203125 1250.08386230469 0.0000 
65536 294.223342895508 76.3019714355469 9.1552734375e-05 3213703.5000 294.223342895508 294.21647644043 0.006866455078125 0.0037078857421875 0 0 0.0000 0.0000 0.0000 0.0000 80.3031921386719 75.3857727050781 4.91741943359375 4.91351318359375 2.45907592773438 0 0.0612 0.0612 0.0306 0.0000 7.38336181640625 7.1214599609375 0.26190185546875 0.0019683837890625 0.0014190673828125 0 0.0355 0.0003 0.0002 0.0000 294.223342895508 294.223175048828 0.0001678466796875 0 0 0 0.0000 0.0000 0.0000 0.0000 80.3031921386719 80.2999420166016 0.0032501220703125 0.0012969970703125 0.0007781982421875 0 0.0000 0.0000 0.0000 0.0000 0x00400000 1.12890625 0x10000000 0.12579345703125 0x7fffc000 0.25 0x00400140 0x7fff8000 0 0.002349853515625 616k 0.002349853515625 1344.50247192383 0.0000 
131072 311.161071777344 79.2719497680664 8.392333984375e-05 3707682.1818 311.161071777344 311.157844543457 0.00322723388671875 0.00177764892578125 0 0 0.0000 0.0000 0.0000 0.0000 83.2725601196289 78.2421340942383 5.03042602539062 5.02847290039062 2.51238250732422 0 0.0604 0.0604 0.0302 0.0000 7.54603576660156 7.29029083251953 0.255744934082031 0.000946044921875 0.0006866455078125 0 0.0339 0.0001 0.0001 0.0000 311.161071777344 311.160987854004 8.392333984375e-05 0 0 0 0.0000 0.0000 0.0000 0.0000 83.2725601196289 83.2406387329102 0.03192138671875 0.03094482421875 0.0162506103515625 0 0.0004 0.0004 0.0002 0.0000 0x00400000 0.564453125 0x10000000 0.062896728515625 0x7fffc000 0.125 0x00400140 0x7fff8000 0 0.0021514892578125 1128k 0.0021514892578125 1414.69076538086 0.0000 
262144 333.140933990479 86.2575607299805 9.1552734375e-05 3638787.3750 333.140933990479 333.139217376709 0.00171661376953125 0.000926971435546875 0 0 0.0000 0.0000 0.0000 0.0000 90.2578659057617 85.0321617126465 5.22570419311523 5.22472763061523 2.60539245605469 0 0.0579 0.0579 0.0289 0.0000 7.83281326293945 7.35196685791016 0.480846405029297 0.235225677490234 0.130657196044922 0 0.0614 0.0300 0.0167 0.0000 333.140933990479 333.140892028809 4.1961669921875e-05 0 0 0 0.0000 0.0000 0.0000 0.0000 90.2578659057617 90.2217216491699 0.0361442565917969 0.0356559753417969 0.0183982849121094 0 0.0004 0.0004 0.0002 0.0000 0x00400000 0.2822265625 0x10000000 0.0314483642578125 0x7fffc000 0.0625 0x00400140 0x7fff8000 0 0.00205230712890625 2152k 0.00205230712890625 1514.83014678955 0.0000 
524288 350.131635665894 89.2525463104248 9.72747802734375e-05 3599408.1373 350.131635665894 350.130828857422 0.000806808471679688 0.000444412231445312 0 0 0.0000 0.0000 0.0000 0.0000 93.2526988983154 88.1236782073975 5.12902069091797 5.12853240966797 2.5539722442627 0 0.0550 0.0550 0.0274 0.0000 7.68379974365234 3.45408821105957 4.22971153259277 4.10471153259277 2.33330154418945 0 0.5505 0.5342 0.3037 0.0000 350.131635665894 350.131614685059 2.09808349609375e-05 0 0 0 0.0000 0.0000 0.0000 0.0000 93.2526988983154 93.2165470123291 0.0361518859863281 0.0359077453613281 0.0184898376464844 0 0.0004 0.0004 0.0002 0.0000 0x00400000 0.14111328125 0x10000000 0.0157241821289062 0x7fffc000 0.03125 0x00400140 0x7fff8000 0 0.00200271606445312 4200k 0.00200271606445312 1587.90727996826 0.0000 
1048576 372.129017829895 96.2559185028076 0.000102996826171875 3613014.4167 372.129017829895 372.1285572052 0.000460624694824219 0.000240325927734375 0 0 0.0000 0.0000 0.0000 0.0000 100.255994796753 94.5490026473999 5.70699214935303 5.70674800872803 2.83780956268311 0 0.0569 0.0569 0.0283 0.0000 8.54526233673096 3.4578857421875 5.08737659454346 5.02487659454346 2.56639003753662 0 0.5953 0.5880 0.3003 0.0000 372.129017829895 372.129007339478 1.04904174804688e-05 0 0 0 0.0000 0.0000 0.0000 0.0000 100.255994796753 100.215923309326 0.0400714874267578 0.0399494171142578 0.0204954147338867 0 0.0004 0.0004 0.0002 0.0000 0x00400000 0.070556640625 0x10000000 0.00786209106445312 0x7fffc000 0.015625 0x00400140 0x7fff8000 0 0.001983642578125 8320k 0.0936069488525391 1689.46573066711 0.0001 
2097152 389.127018451691 99.2530527114868 0.000109672546386719 3548080.4565 389.127018451691 389.126791954041 0.000226497650146484 0.000116348266601562 0 0 0.0000 0.0000 0.0000 0.0000 103.253090858459 97.6206593513489 5.6324315071106 5.6323094367981 2.79744052886963 0 0.0545 0.0545 0.0271 0.0000 8.43009853363037 3.31664371490479 5.11345481872559 5.08220481872559 2.60708284378052 0 0.6066 0.6029 0.3093 0.0000 389.127018451691 389.127013206482 5.24520874023438e-06 0 0 0 0.0000 0.0000 0.0000 0.0000 103.253090858459 103.213018417358 0.0400724411010742 0.0400114059448242 0.0205197334289551 0 0.0004 0.0004 0.0002 0.0000 0x00400000 0.0352783203125 0x10000000 0.00393104553222656 0x7fffc000 0.0078125 0x00400140 0x7fff8000 0 0.00197124481201172 16536k 0.049710750579834 1763.2330904007 0.0000 
4194304 411.128880262375 106.251974582672 0.000114917755126953 3577592.3382 411.128880262375 411.128765106201 0.000115156173706055 6.00814819335938e-05 0 0 0.0000 0.0000 0.0000 0.0000 110.251993656158 104.108730077744 6.14326357841492 6.14320254325867 3.04788994789124 0 0.0557 0.0557 0.0276 0.0000 9.19126868247986 3.57039141654968 5.62087726593018 5.60525226593018 2.86163210868835 0 0.6115 0.6098 0.3113 0.0000 411.128880262375 411.128877639771 2.62260437011719e-06 0 0 0 0.0000 0.0000 0.0000 0.0000 110.251993656158 110.208011865616 0.0439817905426025 0.0439512729644775 0.0224845409393311 0 0.0004 0.0004 0.0002 0.0000 0x00400000 0.01763916015625 0x10000000 0.00196552276611328 0x7fffc000 0.00390625 0x00400140 0x7fff8000 0 0.00196504592895508 32968k 0.0273652076721191 1865.12892580032 0.0000 
