#set_size_in_keys sim_num_insn sim_num_refs sim_elapsed_time sim_inst_rate sim_num_branches sim_IPB bpred_2lev.lookups bpred_2lev.updates bpred_2lev.addr_hits bpred_2lev.dir_hits bpred_2lev.misses bpred_2lev.jr_hits bpred_2lev.jr_seen bpred_2lev.jr_non_ras_hits.PP bpred_2lev.jr_non_ras_seen.PP bpred_2lev.bpred_addr_rate bpred_2lev.bpred_dir_rate bpred_2lev.bpred_jr_rate bpred_2lev.bpred_jr_non_ras_rate.PP bpred_2lev.retstack_pushes bpred_2lev.retstack_pops bpred_2lev.used_ras.PP bpred_2lev.ras_hits.PP bpred_2lev.ras_rate.PP
4096 217.759033203125 57.16748046875 0.000244140625 891941.0000 27.52880859375 7.9102 27.52880859375 27.52880859375 21.565673828125 21.5927734375 5.93603515625 0.014892578125 0.01513671875 0 0.000244140625 0.7834 0.7844 0.9839 0.0000 0.015380859375 0.014892578125 0.014892578125 0.014892578125 1.0000 
8192 233.949951171875 59.7080078125 0.0001220703125 1916518.0000 29.772216796875 7.8580 29.772216796875 29.772216796875 23.336669921875 23.350341796875 6.421875 0.0081787109375 0.00830078125 0 0 0.7838 0.7843 0.9853 <error: 0.008544921875 0.00830078125 0.00830078125 0.0081787109375 0.9853 
16384 255.540710449219 66.4793701171875 6.103515625e-05 4186779.0000 32.331787109375 7.9037 32.331787109375 32.331787109375 25.3907470703125 25.3976440429688 6.93414306640625 0.00421142578125 0.00433349609375 0 6.103515625e-05 0.7853 0.7855 0.9718 0.0000 0.00439453125 0.0042724609375 0.0042724609375 0.00421142578125 0.9857 
32768 272.337554931641 69.3616638183594 3.0517578125e-05 8923957.0000 34.689697265625 7.8507 34.689697265625 34.689697265625 27.2905883789062 27.2939758300781 7.39572143554688 0.002044677734375 0.0020751953125 0 0 0.7867 0.7868 0.9853 <error: 0.00213623046875 0.0020751953125 0.0020751953125 0.002044677734375 0.9853 
65536 294.223342895508 76.3019714355469 4.57763671875e-05 6427407.0000 37.2983551025391 7.8884 37.2983551025391 37.2983551025391 29.4025115966797 29.4042816162109 7.89407348632812 0.0010528564453125 0.0010833740234375 0 1.52587890625e-05 0.7883 0.7884 0.9718 0.0000 0.0010986328125 0.001068115234375 0.001068115234375 0.0010528564453125 0.9857 
131072 311.161071777344 79.2719497680664 5.340576171875e-05 5826357.7143 39.6604232788086 7.8456 39.6604232788086 39.6604232788086 31.2741851806641 31.275016784668 8.38540649414062 0.00051116943359375 0.000518798828125 0 0 0.7885 0.7886 0.9853 <error: 0.0005340576171875 0.000518798828125 0.000518798828125 0.00051116943359375 0.9853 
262144 333.140933990479 86.2575607299805 5.7220458984375e-05 5822059.8000 42.2857208251953 7.8783 42.2857208251953 42.2857208251953 33.3925552368164 33.392993927002 8.89272689819336 0.000263214111328125 0.000270843505859375 0 3.814697265625e-06 0.7897 0.7897 0.9718 0.0000 0.000274658203125 0.00026702880859375 0.00026702880859375 0.000263214111328125 0.9857 
524288 350.131635665894 89.2525463104248 6.103515625e-05 5736556.7188 44.6598377227783 7.8400 44.6598377227783 44.6598377227783 35.2717704772949 35.2719802856445 9.38785743713379 0.000127792358398438 0.00012969970703125 0 0 0.7898 0.7898 0.9853 <error: 0.000133514404296875 0.00012969970703125 0.00012969970703125 0.000127792358398438 0.9853 
1048576 372.129017829895 96.2559185028076 6.4849853515625e-05 5738317.0147 47.2798852920532 7.8708 47.2798852920532 47.2798852920532 37.3916997909546 37.3918161392212 9.88806915283203 6.96182250976562e-05 7.05718994140625e-05 9.5367431640625e-07 1.9073486328125e-06 0.7909 0.7909 0.9865 0.5000 7.05718994140625e-05 6.866455078125e-05 6.866455078125e-05 6.866455078125e-05 1.0000 
2097152 389.127018451691 99.2530527114868 6.77108764648438e-05 5746890.8803 49.655134677887 7.8366 49.655134677887 49.655134677887 39.2678260803223 39.2678847312927 10.3872499465942 3.33786010742188e-05 3.38554382324219e-05 0 4.76837158203125e-07 0.7908 0.7908 0.9859 0.0000 3.4332275390625e-05 3.33786010742188e-05 3.33786010742188e-05 3.33786010742188e-05 1.0000 
4194304 411.128880262375 106.251974582672 7.12871551513672e-05 5767222.4314 52.2821524143219 7.8637 52.2821524143219 52.2821524143219 41.3930883407593 41.3931176662445 10.8890347480774 1.74045562744141e-05 1.76429748535156e-05 2.38418579101562e-07 4.76837158203125e-07 0.7917 0.7917 0.9865 0.5000 1.76429748535156e-05 1.71661376953125e-05 1.71661376953125e-05 1.71661376953125e-05 1.0000 
