#set_size_in_keys sim_num_insn sim_num_refs sim_elapsed_time sim_inst_rate il1.accesses il1.hits il1.misses il1.replacements il1.writebacks il1.invalidations il1.miss_rate il1.repl_rate il1.wb_rate il1.inv_rate dl1.accesses dl1.hits dl1.misses dl1.replacements dl1.writebacks dl1.invalidations dl1.miss_rate dl1.repl_rate dl1.wb_rate dl1.inv_rate dl2.accesses dl2.hits dl2.misses dl2.replacements dl2.writebacks dl2.invalidations dl2.miss_rate dl2.repl_rate dl2.wb_rate dl2.inv_rate itlb.accesses itlb.hits itlb.misses itlb.replacements itlb.writebacks itlb.invalidations itlb.miss_rate itlb.repl_rate itlb.wb_rate itlb.inv_rate dtlb.accesses dtlb.hits dtlb.misses dtlb.replacements dtlb.writebacks dtlb.invalidations dtlb.miss_rate dtlb.repl_rate dtlb.wb_rate dtlb.inv_rate ld_text_base ld_text_size ld_data_base ld_data_size ld_stack_base ld_stack_size ld_prog_entry ld_environ_base ld_target_big_endian mem.page_count mem.page_mem mem.ptab_misses mem.ptab_accesses mem.ptab_miss_rate
4096 148.81787109375 45.93896484375 0.000244140625 609558.0000 148.81787109375 148.68798828125 0.1298828125 0.07373046875 0 0 0.0009 0.0005 0.0000 0.0000 45.9560546875 45.38232421875 0.57373046875 0.51123046875 0.48486328125 0 0.0125 0.0111 0.0106 0.0000 1.1884765625 0.83203125 0.3564453125 0.0869140625 0.044189453125 0 0.2999 0.0731 0.0372 0.0000 148.81787109375 148.81591796875 0.001953125 0 0 0 0.0000 0.0000 0.0000 0.0000 45.9560546875 45.953369140625 0.002685546875 0 0 0 0.0001 0.0000 0.0000 0.0000 0x00400000 7.8203125 0x10000000 1 0x7fffc000 4 0x00400140 0x7fff8000 0 0.004638671875 76k 0.004638671875 735.39404296875 0.0000 
8192 156.868774414062 47.1417236328125 0.0001220703125 1285069.0000 156.868774414062 156.803833007812 0.06494140625 0.036865234375 0 0 0.0004 0.0002 0.0000 0.0000 47.1502685546875 46.45361328125 0.6966552734375 0.6654052734375 0.6041259765625 0 0.0148 0.0141 0.0128 0.0000 1.36572265625 1.1251220703125 0.2406005859375 0.0433349609375 0.0220947265625 0 0.1762 0.0317 0.0162 0.0000 156.868774414062 156.867797851562 0.0009765625 0 0 0 0.0000 0.0000 0.0000 0.0000 47.1502685546875 47.1484375 0.0018310546875 0 0 0 0.0000 0.0000 0.0000 0.0000 0x00400000 3.9140625 0x10000000 0.5 0x7fffc000 2 0x00400140 0x7fff8000 0 0.0028076171875 92k 0.0028076171875 745.904296875 0.0000 
16384 163.382934570312 48.4252319335938 6.103515625e-05 2676866.0000 163.382934570312 163.351135253906 0.03179931640625 0.01776123046875 0 0 0.0002 0.0001 0.0000 0.0000 48.4295043945312 47.653076171875 0.77642822265625 0.76080322265625 0.71783447265625 0 0.0160 0.0157 0.0148 0.0000 1.52606201171875 1.344482421875 0.18157958984375 0.02154541015625 0.01129150390625 0 0.1190 0.0141 0.0074 0.0000 163.382934570312 163.382446289062 0.00048828125 0 0 0 0.0000 0.0000 0.0000 0.0000 48.4295043945312 48.4281005859375 0.00140380859375 0 0 0 0.0000 0.0000 0.0000 0.0000 0x00400000 1.9580078125 0x10000000 0.25 0x7fffc000 1 0x00400140 0x7fff8000 0 0.00189208984375 124k 0.00189208984375 762.4609375 0.0000 
32768 171.116027832031 50.211181640625 9.1552734375e-05 1869043.3333 171.116027832031 171.100219726562 0.01580810546875 0.008758544921875 0 0 0.0001 0.0001 0.0000 0.0000 50.2133178710938 49.348876953125 0.86444091796875 0.85662841796875 0.8187255859375 0 0.0172 0.0171 0.0163 0.0000 1.698974609375 1.54595947265625 0.15301513671875 0.010467529296875 0.00543212890625 0 0.0901 0.0062 0.0032 0.0000 171.116027832031 171.115783691406 0.000244140625 0 0 0 0.0000 0.0000 0.0000 0.0000 50.2133178710938 50.2121276855469 0.001190185546875 0 0 0 0.0000 0.0000 0.0000 0.0000 0x00400000 0.97998046875 0x10000000 0.125 0x7fffc000 0.5 0x00400140 0x7fff8000 0 0.001434326171875 188k 0.001434326171875 790.931701660156 0.0000 
65536 180.183456420898 52.25146484375 0.0001068115234375 1686929.0000 180.183456420898 180.175506591797 0.0079498291015625 0.004425048828125 0 0 0.0000 0.0000 0.0000 0.0000 52.2525329589844 51.2348480224609 1.01768493652344 1.01377868652344 0.95733642578125 0 0.0195 0.0194 0.0183 0.0000 1.98297119140625 1.84388732910156 0.139083862304688 0.00531005859375 0.002777099609375 0 0.0701 0.0027 0.0014 0.0000 180.183456420898 180.183334350586 0.0001220703125 0 0 0 0.0000 0.0000 0.0000 0.0000 52.2525329589844 52.2514495849609 0.0010833740234375 0 0 0 0.0000 0.0000 0.0000 0.0000 0x00400000 0.489990234375 0x10000000 0.0625 0x7fffc000 0.25 0x00400140 0x7fff8000 0 0.0012054443359375 316k 0.0012054443359375 828.259368896484 0.0000 
131072 191.62703704834 54.6799240112305 9.918212890625e-05 1932072.2308 191.62703704834 191.623085021973 0.0039520263671875 0.00218963623046875 0 0 0.0000 0.0000 0.0000 0.0000 54.6804580688477 53.4602890014648 1.22016906738281 1.21821594238281 1.10501098632812 0 0.0223 0.0223 0.0202 0.0000 2.32913208007812 2.19711303710938 0.13201904296875 0.00263214111328125 0.00136566162109375 0 0.0567 0.0011 0.0006 0.0000 191.62703704834 191.626976013184 6.103515625e-05 0 0 0 0.0000 0.0000 0.0000 0.0000 54.6804580688477 54.6792373657227 0.001220703125 0.000244140625 0.00023651123046875 0 0.0000 0.0000 0.0000 0.0000 0x00400000 0.2449951171875 0x10000000 0.03125 0x7fffc000 0.125 0x00400140 0x7fff8000 0 0.00109100341796875 572k 0.00109100341796875 877.379302978516 0.0000 
262144 198.055999755859 56.407398223877 0.000102996826171875 1922933.0370 198.055999755859 198.054012298584 0.00198745727539062 0.00110626220703125 0 0 0.0000 0.0000 0.0000 0.0000 56.4076652526855 55.0925369262695 1.31512832641602 1.31415176391602 1.22550964355469 0 0.0233 0.0233 0.0217 0.0000 2.54262542724609 2.41410446166992 0.128520965576172 0.0013275146484375 0.00069427490234375 0 0.0505 0.0005 0.0003 0.0000 198.055999755859 198.055969238281 3.0517578125e-05 0 0 0 0.0000 0.0000 0.0000 0.0000 56.4076652526855 56.4047927856445 0.00287246704101562 0.00238418579101562 0.00238037109375 0 0.0001 0.0000 0.0000 0.0000 0x00400000 0.12249755859375 0x10000000 0.015625 0x7fffc000 0.0625 0x00400140 0x7fff8000 0 0.00103378295898438 1084k 0.00103378295898438 905.794448852539 0.0000 
524288 210.07398223877 58.9096622467041 0.000112533569335938 1866767.2542 210.07398223877 210.073013305664 0.00096893310546875 0.000535964965820312 0 0 0.0000 0.0000 0.0000 0.0000 58.9097957611084 57.3872756958008 1.52252006530762 1.52203178405762 1.37705421447754 0 0.0258 0.0258 0.0234 0.0000 2.90054321289062 2.77243041992188 0.12811279296875 0.00311279296875 0.0025482177734375 0 0.0442 0.0011 0.0009 0.0000 210.07398223877 210.07396697998 1.52587890625e-05 0 0 0 0.0000 0.0000 0.0000 0.0000 58.9097957611084 58.9054565429688 0.00433921813964844 0.00409507751464844 0.00409317016601562 0 0.0001 0.0001 0.0001 0.0000 0x00400000 0.061248779296875 0x10000000 0.0078125 0x7fffc000 0.03125 0x00400140 0x7fff8000 0 0.00100517272949219 2108k 0.00100517272949219 958.49308013916 0.0000 
1048576 217.23272228241 60.7416467666626 0.000116348266601562 1867090.3197 217.23272228241 217.232222557068 0.000499725341796875 0.000279426574707031 0 0 0.0000 0.0000 0.0000 0.0000 60.7417135238647 59.1201267242432 1.62158679962158 1.62134265899658 1.50086307525635 0 0.0267 0.0267 0.0247 0.0000 3.12294960021973 2.79427623748779 0.328673362731934 0.266173362731934 0.262362480163574 0 0.1052 0.0852 0.0840 0.0000 217.23272228241 217.232714653015 7.62939453125e-06 0 0 0 0.0000 0.0000 0.0000 0.0000 60.7417135238647 60.736400604248 0.00531291961669922 0.00519084930419922 0.00518989562988281 0 0.0001 0.0001 0.0001 0.0000 0x00400000 0.0306243896484375 0x10000000 0.00390625 0x7fffc000 0.015625 0x00400140 0x7fff8000 0 0.000990867614746094 4156k 0.000990867614746094 990.603096008301 0.0000 
2097152 290.917991161346 77.3441548347473 0.000156879425048828 1854405.0061 290.917991161346 290.917623519897 0.000367641448974609 0.000246047973632812 0 0 0.0000 0.0000 0.0000 0.0000 77.3441886901855 75.2683124542236 2.07587623596191 2.07575416564941 1.62042617797852 0 0.0268 0.0268 0.0210 0.0000 3.6966700553894 2.95123624801636 0.745433807373047 0.714183807373047 0.461604118347168 0 0.2017 0.1932 0.1249 0.0000 290.917991161346 290.917987346649 3.814697265625e-06 0 0 0 0.0000 0.0000 0.0000 0.0000 77.3441886901855 77.3356132507324 0.008575439453125 0.008514404296875 0.00657415390014648 0 0.0001 0.0001 0.0001 0.0000 0x00400000 0.0153121948242188 0x10000000 0.001953125 0x7fffc000 0.0078125 0x00400140 0x7fff8000 0 0.00197124481201172 16536k 0.00780582427978516 1318.45473194122 0.0000 
4194304 288.895994901657 77.2470285892487 0.000177383422851562 1628652.7245 288.895994901657 288.895808696747 0.00018620491027832 0.000125408172607422 0 0 0.0000 0.0000 0.0000 0.0000 77.2470455169678 75.0663614273071 2.18068408966064 2.18062305450439 1.70624494552612 0 0.0282 0.0282 0.0221 0.0000 3.88711524009705 3.12028527259827 0.766829967498779 0.751204967498779 0.498158931732178 0 0.1973 0.1933 0.1282 0.0000 288.895994901657 288.895992994308 1.9073486328125e-06 0 0 0 0.0000 0.0000 0.0000 0.0000 77.2470455169678 77.2385718822479 0.00847363471984863 0.00844311714172363 0.00648689270019531 0 0.0001 0.0001 0.0001 0.0000 0x00400000 0.00765609741210938 0x10000000 0.0009765625 0x7fffc000 0.00390625 0x00400140 0x7fff8000 0 0.0019676685333252 33012k 0.00634360313415527 1310.1252655983 0.0000 
