#set_size_in_keys sim_num_insn sim_num_refs sim_elapsed_time sim_inst_rate sim_num_branches sim_IPB bpred_2lev.lookups bpred_2lev.updates bpred_2lev.addr_hits bpred_2lev.dir_hits bpred_2lev.misses bpred_2lev.jr_hits bpred_2lev.jr_seen bpred_2lev.jr_non_ras_hits.PP bpred_2lev.jr_non_ras_seen.PP bpred_2lev.bpred_addr_rate bpred_2lev.bpred_dir_rate bpred_2lev.bpred_jr_rate bpred_2lev.bpred_jr_non_ras_rate.PP bpred_2lev.retstack_pushes bpred_2lev.retstack_pops bpred_2lev.used_ras.PP bpred_2lev.ras_hits.PP bpred_2lev.ras_rate.PP
4096 148.81787109375 45.93896484375 0.000244140625 609558.0000 26.480712890625 5.6199 26.480712890625 26.480712890625 19.806396484375 19.83837890625 6.642333984375 2.08984375 2.08984375 0 0 0.7480 0.7492 1.0000 <error: 2.09033203125 2.08984375 2.08984375 2.08984375 1.0000 
8192 156.868774414062 47.1417236328125 0.0001220703125 1285069.0000 27.9202880859375 5.6185 27.9202880859375 27.9202880859375 20.9090576171875 20.9251708984375 6.9951171875 2.044921875 2.044921875 0 0 0.7489 0.7495 1.0000 <error: 2.045166015625 2.044921875 2.044921875 2.044921875 1.0000 
16384 163.382934570312 48.4252319335938 6.103515625e-05 2676866.0000 29.1468505859375 5.6055 29.1468505859375 29.1468505859375 21.6993408203125 21.7072143554688 7.43963623046875 2.0224609375 2.0224609375 0 0 0.7445 0.7448 1.0000 <error: 2.0225830078125 2.0224609375 2.0224609375 2.0224609375 1.0000 
32768 171.116027832031 50.211181640625 3.0517578125e-05 5607130.0000 30.5403747558594 5.6029 30.5403747558594 30.5403747558594 22.5302124023438 22.5340576171875 8.00631713867188 2.01123046875 2.01123046875 0 0 0.7377 0.7378 1.0000 <error: 2.01129150390625 2.01123046875 2.01123046875 2.01123046875 1.0000 
65536 180.183456420898 52.25146484375 4.57763671875e-05 3936167.6667 32.1668395996094 5.6015 32.1668395996094 32.1668395996094 23.6626129150391 23.6644744873047 8.50236511230469 2.005615234375 2.005615234375 0 0 0.7356 0.7357 1.0000 <error: 2.00564575195312 2.005615234375 2.005615234375 2.005615234375 1.0000 
131072 191.62703704834 54.6799240112305 4.57763671875e-05 4186156.5000 34.2097778320312 5.6015 34.2097778320312 34.2097778320312 25.286750793457 25.2876586914062 8.922119140625 2.0028076171875 2.0028076171875 0 0 0.7392 0.7392 1.0000 <error: 2.00282287597656 2.0028076171875 2.0028076171875 2.0028076171875 1.0000 
262144 198.055999755859 56.407398223877 4.9591064453125e-05 3993784.0000 35.437255859375 5.5889 35.437255859375 35.437255859375 25.9925689697266 25.9930381774902 9.44421768188477 2.00140380859375 2.00140380859375 0 0 0.7335 0.7335 1.0000 <error: 2.00141143798828 2.00140380859375 2.00140380859375 2.00140380859375 1.0000 
524288 210.07398223877 58.9096622467041 5.14984130859375e-05 4079232.1481 37.5047168731689 5.6013 37.5047168731689 37.5047168731689 27.6582679748535 27.6585083007812 9.8462085723877 2.00070190429688 2.00070190429688 0 0 0.7375 0.7375 1.0000 <error: 2.00070571899414 2.00070190429688 2.00070190429688 2.00070190429688 1.0000 
1048576 217.23272228241 60.7416467666626 5.24520874023438e-05 4141545.8000 38.8350257873535 5.5937 38.8350257873535 38.8350257873535 28.4681310653687 28.4682531356812 10.3667726516724 2.00035095214844 2.00035095214844 0 0 0.7331 0.7331 1.0000 <error: 2.00035285949707 2.00035095214844 2.00035095214844 2.00035095214844 1.0000 
2097152 290.917991161346 77.3441548347473 7.34329223632812e-05 3961683.4221 48.7392792701721 5.9689 48.7392792701721 48.7392792701721 37.7083687782288 37.7084488868713 11.0308303833008 2.00019121170044 2.0001916885376 0 4.76837158203125e-07 0.7737 0.7737 1.0000 0.0000 2.00019216537476 2.00019121170044 2.00019121170044 2.00019121170044 1.0000 
4194304 288.895994901657 77.2470285892487 7.12871551513672e-05 4052567.3144 48.3320364952087 5.9773 48.3320364952087 48.3320364952087 36.8481452465057 36.8481869697571 11.4838495254517 2.00009560585022 2.0000958442688 0 2.38418579101562e-07 0.7624 0.7624 1.0000 0.0000 2.00009608268738 2.00009560585022 2.00009560585022 2.00009560585022 1.0000 
