#set_size_in_keys sim_num_insn sim_num_refs sim_elapsed_time sim_inst_rate il1.accesses il1.hits il1.misses il1.replacements il1.writebacks il1.invalidations il1.miss_rate il1.repl_rate il1.wb_rate il1.inv_rate dl1.accesses dl1.hits dl1.misses dl1.replacements dl1.writebacks dl1.invalidations dl1.miss_rate dl1.repl_rate dl1.wb_rate dl1.inv_rate dl2.accesses dl2.hits dl2.misses dl2.replacements dl2.writebacks dl2.invalidations dl2.miss_rate dl2.repl_rate dl2.wb_rate dl2.inv_rate itlb.accesses itlb.hits itlb.misses itlb.replacements itlb.writebacks itlb.invalidations itlb.miss_rate itlb.repl_rate itlb.wb_rate itlb.inv_rate dtlb.accesses dtlb.hits dtlb.misses dtlb.replacements dtlb.writebacks dtlb.invalidations dtlb.miss_rate dtlb.repl_rate dtlb.wb_rate dtlb.inv_rate ld_text_base ld_text_size ld_data_base ld_data_size ld_stack_base ld_stack_size ld_prog_entry ld_environ_base ld_target_big_endian mem.page_count mem.page_mem mem.ptab_misses mem.ptab_accesses mem.ptab_miss_rate
4096 148.81787109375 45.93896484375 0.001708984375 87079.7143 148.81787109375 148.709716796875 0.108154296875 0.045654296875 0 0 0.0007 0.0003 0.0000 0.0000 45.9560546875 45.38330078125 0.57275390625 0.51025390625 0.47412109375 0 0.0125 0.0111 0.0103 0.0000 1.155029296875 0.81396484375 0.341064453125 0 0 0 0.2953 0.0000 0.0000 0.0000 148.81787109375 148.81591796875 0.001953125 0 0 0 0.0000 0.0000 0.0000 0.0000 45.9560546875 45.953369140625 0.002685546875 0 0 0 0.0001 0.0000 0.0000 0.0000 0x00400000 7.8203125 0x10000000 1 0x7fffc000 4 0x00400140 0x7fff8000 0 0.004638671875 76k 0.004638671875 735.39404296875 0.0000 
8192 156.868774414062 47.1417236328125 0.001220703125 128506.9000 156.868774414062 156.814575195312 0.05419921875 0.02294921875 0 0 0.0003 0.0001 0.0000 0.0000 47.1502685546875 46.4796142578125 0.670654296875 0.639404296875 0.583251953125 0 0.0142 0.0136 0.0124 0.0000 1.30810546875 1.074951171875 0.233154296875 0 0 0 0.1782 0.0000 0.0000 0.0000 156.868774414062 156.867797851562 0.0009765625 0 0 0 0.0000 0.0000 0.0000 0.0000 47.1502685546875 47.1484375 0.0018310546875 0 0 0 0.0000 0.0000 0.0000 0.0000 0x00400000 3.9140625 0x10000000 0.5 0x7fffc000 2 0x00400140 0x7fff8000 0 0.0028076171875 92k 0.0028076171875 745.904296875 0.0000 
16384 163.382934570312 48.4252319335938 0.00091552734375 178457.7333 163.382934570312 163.356140136719 0.02679443359375 0.01116943359375 0 0 0.0002 0.0001 0.0000 0.0000 48.4295043945312 47.6740112304688 0.7554931640625 0.7398681640625 0.7044677734375 0 0.0156 0.0153 0.0145 0.0000 1.48675537109375 1.30889892578125 0.1778564453125 0 0 0 0.1196 0.0000 0.0000 0.0000 163.382934570312 163.382446289062 0.00048828125 0 0 0 0.0000 0.0000 0.0000 0.0000 48.4295043945312 48.4281005859375 0.00140380859375 0 0 0 0.0000 0.0000 0.0000 0.0000 0x00400000 1.9580078125 0x10000000 0.25 0x7fffc000 1 0x00400140 0x7fff8000 0 0.00189208984375 124k 0.00189208984375 762.4609375 0.0000 
32768 171.116027832031 50.211181640625 0.000823974609375 207671.4815 171.116027832031 171.102783203125 0.01324462890625 0.00543212890625 0 0 0.0001 0.0000 0.0000 0.0000 50.2133178710938 49.37841796875 0.83489990234375 0.82708740234375 0.797027587890625 0 0.0166 0.0165 0.0159 0.0000 1.64517211914062 1.493896484375 0.151275634765625 0 0 0 0.0920 0.0000 0.0000 0.0000 171.116027832031 171.115783691406 0.000244140625 0 0 0 0.0000 0.0000 0.0000 0.0000 50.2133178710938 50.2121276855469 0.001190185546875 0 0 0 0.0000 0.0000 0.0000 0.0000 0x00400000 0.97998046875 0x10000000 0.125 0x7fffc000 0.5 0x00400140 0x7fff8000 0 0.001434326171875 188k 0.001434326171875 790.931701660156 0.0000 
65536 180.183456420898 52.25146484375 0.000762939453125 236170.0600 180.183456420898 180.176788330078 0.0066680908203125 0.0027618408203125 0 0 0.0000 0.0000 0.0000 0.0000 52.2525329589844 51.2725982666016 0.979934692382812 0.976028442382812 0.930374145507812 0 0.0188 0.0187 0.0178 0.0000 1.91697692871094 1.77877807617188 0.138198852539062 0 0 0 0.0721 0.0000 0.0000 0.0000 180.183456420898 180.183334350586 0.0001220703125 0 0 0 0.0000 0.0000 0.0000 0.0000 52.2525329589844 52.2514495849609 0.0010833740234375 0 0 0 0.0000 0.0000 0.0000 0.0000 0x00400000 0.489990234375 0x10000000 0.0625 0x7fffc000 0.25 0x00400140 0x7fff8000 0 0.0012054443359375 316k 0.0012054443359375 828.259368896484 0.0000 
131072 191.62703704834 54.6799240112305 0.0006866455078125 279077.1000 191.62703704834 191.623725891113 0.0033111572265625 0.0013580322265625 0 0 0.0000 0.0000 0.0000 0.0000 54.6804580688477 53.4979476928711 1.18251037597656 1.18055725097656 1.08049774169922 0 0.0216 0.0216 0.0198 0.0000 2.26631927490234 2.13474273681641 0.131576538085938 0 0 0 0.0581 0.0000 0.0000 0.0000 191.62703704834 191.626976013184 6.103515625e-05 0 0 0 0.0000 0.0000 0.0000 0.0000 54.6804580688477 54.6792373657227 0.001220703125 0.000244140625 0.00023651123046875 0 0.0000 0.0000 0.0000 0.0000 0x00400000 0.2449951171875 0x10000000 0.03125 0x7fffc000 0.125 0x00400140 0x7fff8000 0 0.00109100341796875 572k 0.00109100341796875 877.379302978516 0.0000 
262144 198.055999755859 56.407398223877 0.00060272216796875 328602.4810 198.055999755859 198.054332733154 0.00166702270507812 0.000690460205078125 0 0 0.0000 0.0000 0.0000 0.0000 56.4076652526855 55.1358680725098 1.27179718017578 1.27082061767578 1.197509765625 0 0.0225 0.0225 0.0212 0.0000 2.47097396850586 2.34267425537109 0.128299713134766 0 0 0 0.0519 0.0000 0.0000 0.0000 198.055999755859 198.055969238281 3.0517578125e-05 0 0 0 0.0000 0.0000 0.0000 0.0000 56.4076652526855 56.4047927856445 0.00287246704101562 0.00238418579101562 0.00238037109375 0 0.0001 0.0000 0.0000 0.0000 0x00400000 0.12249755859375 0x10000000 0.015625 0x7fffc000 0.0625 0x00400140 0x7fff8000 0 0.00103378295898438 1084k 0.00103378295898438 905.794448852539 0.0000 
524288 210.07398223877 58.9096622467041 0.00043487548828125 483066.9649 210.07398223877 210.073173522949 0.0008087158203125 0.0003204345703125 0 0 0.0000 0.0000 0.0000 0.0000 58.9097957611084 57.43088722229 1.47890853881836 1.47842025756836 1.35025787353516 0 0.0251 0.0251 0.0229 0.0000 2.82997512817383 2.59697723388672 0.232997894287109 0.107997894287109 0.107540130615234 0 0.0823 0.0382 0.0380 0.0000 210.07398223877 210.07396697998 1.52587890625e-05 0 0 0 0.0000 0.0000 0.0000 0.0000 58.9097957611084 58.9054565429688 0.00433921813964844 0.00409507751464844 0.00409317016601562 0 0.0001 0.0001 0.0001 0.0000 0x00400000 0.061248779296875 0x10000000 0.0078125 0x7fffc000 0.03125 0x00400140 0x7fff8000 0 0.00100517272949219 2108k 0.00100517272949219 958.49308013916 0.0000 
1048576 217.23272228241 60.7416467666626 0.000280380249023438 774778.9762 217.23272228241 217.23230266571 0.00041961669921875 0.00017547607421875 0 0 0.0000 0.0000 0.0000 0.0000 60.7417135238647 59.1674146652222 1.57429885864258 1.57405471801758 1.4720287322998 0 0.0259 0.0259 0.0242 0.0000 3.0467472076416 2.66598796844482 0.380759239196777 0.318259239196777 0.310969352722168 0 0.1250 0.1045 0.1021 0.0000 217.23272228241 217.232714653015 7.62939453125e-06 0 0 0 0.0000 0.0000 0.0000 0.0000 60.7417135238647 60.736400604248 0.00531291961669922 0.00519084930419922 0.00518989562988281 0 0.0001 0.0001 0.0001 0.0000 0x00400000 0.0306243896484375 0x10000000 0.00390625 0x7fffc000 0.015625 0x00400140 0x7fff8000 0 0.000990867614746094 4156k 0.000990867614746094 990.603096008301 0.0000 
2097152 290.917991161346 77.3441548347473 0.000245571136474609 1184658.7320 290.917991161346 290.917687416077 0.000303745269775391 0.000181674957275391 0 0 0.0000 0.0000 0.0000 0.0000 77.3441886901855 75.526876449585 1.81731224060059 1.81719017028809 1.47605323791504 0 0.0235 0.0235 0.0191 0.0000 3.2936692237854 2.54524946212769 0.748419761657715 0.717169761657715 0.467951774597168 0 0.2272 0.2177 0.1421 0.0000 290.917991161346 290.917987346649 3.814697265625e-06 0 0 0 0.0000 0.0000 0.0000 0.0000 77.3441886901855 77.3356132507324 0.008575439453125 0.008514404296875 0.00657415390014648 0 0.0001 0.0001 0.0001 0.0000 0x00400000 0.0153121948242188 0x10000000 0.001953125 0x7fffc000 0.0078125 0x00400140 0x7fff8000 0 0.00197124481201172 16536k 0.00780582427978516 1318.45473194122 0.0000 
4194304 288.895994901657 77.2470285892487 0.000209569931030273 1378518.3470 288.895994901657 288.895841121674 0.000153779983520508 9.27448272705078e-05 0 0 0.0000 0.0000 0.0000 0.0000 77.2470455169678 75.4278032779694 1.81924223899841 1.81918120384216 1.48304319381714 0 0.0236 0.0236 0.0192 0.0000 3.30243921279907 2.51987624168396 0.782562971115112 0.766937971115112 0.516078948974609 0 0.2370 0.2322 0.1563 0.0000 288.895994901657 288.895992994308 1.9073486328125e-06 0 0 0 0.0000 0.0000 0.0000 0.0000 77.2470455169678 77.2385718822479 0.00847363471984863 0.00844311714172363 0.00648689270019531 0 0.0001 0.0001 0.0001 0.0000 0x00400000 0.00765609741210938 0x10000000 0.0009765625 0x7fffc000 0.00390625 0x00400140 0x7fff8000 0 0.0019676685333252 33012k 0.00634360313415527 1310.1252655983 0.0000 
