#set_size_in_keys sim_num_insn sim_num_refs sim_elapsed_time sim_inst_rate sim_num_branches sim_IPB bpred_2lev.lookups bpred_2lev.updates bpred_2lev.addr_hits bpred_2lev.dir_hits bpred_2lev.misses bpred_2lev.jr_hits bpred_2lev.jr_seen bpred_2lev.jr_non_ras_hits.PP bpred_2lev.jr_non_ras_seen.PP bpred_2lev.bpred_addr_rate bpred_2lev.bpred_dir_rate bpred_2lev.bpred_jr_rate bpred_2lev.bpred_jr_non_ras_rate.PP bpred_2lev.retstack_pushes bpred_2lev.retstack_pops bpred_2lev.used_ras.PP bpred_2lev.ras_hits.PP bpred_2lev.ras_rate.PP
4096 148.81787109375 45.93896484375 0.000244140625 609558.0000 26.480712890625 5.6199 26.480712890625 26.480712890625 19.98583984375 20.018310546875 6.46240234375 2.08984375 2.08984375 0 0 0.7547 0.7560 1.0000 <error: 2.09033203125 2.08984375 2.08984375 2.08984375 1.0000 
8192 156.868774414062 47.1417236328125 0.0001220703125 1285069.0000 27.9202880859375 5.6185 27.9202880859375 27.9202880859375 21.137939453125 21.153076171875 6.7672119140625 2.044921875 2.044921875 0 0 0.7571 0.7576 1.0000 <error: 2.045166015625 2.044921875 2.044921875 2.044921875 1.0000 
16384 163.382934570312 48.4252319335938 6.103515625e-05 2676866.0000 29.1468505859375 5.6055 29.1468505859375 29.1468505859375 21.9259643554688 21.9334716796875 7.21337890625 2.0224609375 2.0224609375 0 0 0.7523 0.7525 1.0000 <error: 2.0225830078125 2.0224609375 2.0224609375 2.0224609375 1.0000 
32768 171.116027832031 50.211181640625 3.0517578125e-05 5607130.0000 30.5403747558594 5.6029 30.5403747558594 30.5403747558594 22.7705383300781 22.7742919921875 7.76608276367188 2.01123046875 2.01123046875 0 0 0.7456 0.7457 1.0000 <error: 2.01129150390625 2.01123046875 2.01123046875 2.01123046875 1.0000 
65536 180.183456420898 52.25146484375 4.57763671875e-05 3936167.6667 32.1668395996094 5.6015 32.1668395996094 32.1668395996094 23.9150085449219 23.9168701171875 8.24996948242188 2.005615234375 2.005615234375 0 0 0.7435 0.7435 1.0000 <error: 2.00564575195312 2.005615234375 2.005615234375 2.005615234375 1.0000 
131072 191.62703704834 54.6799240112305 4.57763671875e-05 4186156.5000 34.2097778320312 5.6015 34.2097778320312 34.2097778320312 25.528450012207 25.5293502807617 8.68042755126953 2.0028076171875 2.0028076171875 0 0 0.7462 0.7463 1.0000 <error: 2.00282287597656 2.0028076171875 2.0028076171875 2.0028076171875 1.0000 
262144 198.055999755859 56.407398223877 4.9591064453125e-05 3993784.0000 35.437255859375 5.5889 35.437255859375 35.437255859375 26.2387390136719 26.2392044067383 9.19805145263672 2.00140380859375 2.00140380859375 0 0 0.7404 0.7404 1.0000 <error: 2.00141143798828 2.00140380859375 2.00140380859375 2.00140380859375 1.0000 
524288 210.07398223877 58.9096622467041 5.14984130859375e-05 4079232.1481 37.5047168731689 5.6013 37.5047168731689 37.5047168731689 27.9044952392578 27.9047222137451 9.59999465942383 2.00070190429688 2.00070190429688 0 0 0.7440 0.7440 1.0000 <error: 2.00070571899414 2.00070190429688 2.00070190429688 2.00070190429688 1.0000 
1048576 217.23272228241 60.7416467666626 5.340576171875e-05 4067589.6250 38.8350257873535 5.5937 38.8350257873535 38.8350257873535 28.7158842086792 28.7160024642944 10.1190233230591 2.00035095214844 2.00035095214844 0 0 0.7394 0.7394 1.0000 <error: 2.00035285949707 2.00035095214844 2.00035095214844 2.00035095214844 1.0000 
2097152 290.917991161346 77.3441548347473 7.48634338378906e-05 3885982.4650 48.7392792701721 5.9689 48.7392792701721 48.7392792701721 38.0838718414307 38.0839519500732 10.6553273200989 2.00019121170044 2.0001916885376 0 4.76837158203125e-07 0.7814 0.7814 1.0000 0.0000 2.00019216537476 2.00019121170044 2.00019121170044 2.00019121170044 1.0000 
4194304 288.895994901657 77.2470285892487 7.27176666259766e-05 3972844.6787 48.3320364952087 5.9773 48.3320364952087 48.3320364952087 37.1769618988037 37.1770014762878 11.1550350189209 2.00009560585022 2.0000958442688 0 2.38418579101562e-07 0.7692 0.7692 1.0000 0.0000 2.00009608268738 2.00009560585022 2.00009560585022 2.00009560585022 1.0000 
