#set_size_in_keys sim_num_insn sim_num_refs sim_elapsed_time sim_inst_rate sim_num_branches sim_IPB bpred_bimod.lookups bpred_bimod.updates bpred_bimod.addr_hits bpred_bimod.dir_hits bpred_bimod.misses bpred_bimod.jr_hits bpred_bimod.jr_seen bpred_bimod.jr_non_ras_hits.PP bpred_bimod.jr_non_ras_seen.PP bpred_bimod.bpred_addr_rate bpred_bimod.bpred_dir_rate bpred_bimod.bpred_jr_rate bpred_bimod.bpred_jr_non_ras_rate.PP bpred_bimod.retstack_pushes bpred_bimod.retstack_pops bpred_bimod.used_ras.PP bpred_bimod.ras_hits.PP bpred_bimod.ras_rate.PP
4096 148.8203125 45.93896484375 0.000244140625 609568.0000 26.480712890625 5.6200 26.480712890625 26.480712890625 20.802978515625 20.832763671875 5.64794921875 2.08984375 2.08984375 0 0 0.7856 0.7867 1.0000 <error: 2.09033203125 2.08984375 2.08984375 2.08984375 1.0000 
8192 156.869995117188 47.1417236328125 0.0001220703125 1285079.0000 27.9202880859375 5.6185 27.9202880859375 27.9202880859375 21.9434814453125 21.9583740234375 5.9619140625 2.044921875 2.044921875 0 0 0.7859 0.7865 1.0000 <error: 2.045166015625 2.044921875 2.044921875 2.044921875 1.0000 
16384 163.383544921875 48.4252319335938 6.103515625e-05 2676876.0000 29.1468505859375 5.6055 29.1468505859375 29.1468505859375 22.851806640625 22.8592529296875 6.28759765625 2.0224609375 2.0224609375 0 0 0.7840 0.7843 1.0000 <error: 2.0225830078125 2.0224609375 2.0224609375 2.0224609375 1.0000 
32768 171.116333007812 50.211181640625 3.0517578125e-05 5607140.0000 30.5403747558594 5.6030 30.5403747558594 30.5403747558594 23.6891479492188 23.6929626464844 6.847412109375 2.01123046875 2.01123046875 0 0 0.7757 0.7758 1.0000 <error: 2.01129150390625 2.01123046875 2.01123046875 2.01123046875 1.0000 
65536 180.183609008789 52.25146484375 3.0517578125e-05 5904256.5000 32.1668395996094 5.6015 32.1668395996094 32.1668395996094 24.8935852050781 24.8955230712891 7.27131652832031 2.005615234375 2.005615234375 0 0 0.7739 0.7739 1.0000 <error: 2.00564575195312 2.005615234375 2.005615234375 2.005615234375 1.0000 
131072 191.627113342285 54.6799240112305 4.57763671875e-05 4186158.1667 34.2097778320312 5.6015 34.2097778320312 34.2097778320312 26.6178970336914 26.6188201904297 7.59095764160156 2.0028076171875 2.0028076171875 0 0 0.7781 0.7781 1.0000 <error: 2.00282287597656 2.0028076171875 2.0028076171875 2.0028076171875 1.0000 
262144 198.056037902832 56.407398223877 4.9591064453125e-05 3993784.7692 35.437255859375 5.5889 35.437255859375 35.437255859375 27.3215560913086 27.3220252990723 8.11523056030273 2.00140380859375 2.00140380859375 0 0 0.7710 0.7710 1.0000 <error: 2.00141143798828 2.00140380859375 2.00140380859375 2.00140380859375 1.0000 
524288 210.074001312256 58.9096622467041 5.14984130859375e-05 4079232.5185 37.5047168731689 5.6013 37.5047168731689 37.5047168731689 29.0572109222412 29.057445526123 8.4472713470459 2.00070190429688 2.00070190429688 0 0 0.7748 0.7748 1.0000 <error: 2.00070571899414 2.00070190429688 2.00070190429688 2.00070190429688 1.0000 
1048576 217.232731819153 60.7416467666626 5.24520874023438e-05 4141545.9818 38.8350257873535 5.5937 38.8350257873535 38.8350257873535 29.901985168457 29.9021053314209 8.93292045593262 2.00035095214844 2.00035095214844 0 0 0.7700 0.7700 1.0000 <error: 2.00035285949707 2.00035095214844 2.00035095214844 2.00035095214844 1.0000 
2097152 311.199983596802 79.917839050293 7.91549682617188e-05 3931528.1205 55.8023271560669 5.5768 55.8023271560669 55.8023271560669 46.6223740577698 46.6224503517151 9.17987680435181 2.00019121170044 2.0001916885376 0 4.76837158203125e-07 0.8355 0.8355 1.0000 0.0000 2.00019216537476 2.00019121170044 2.00019121170044 2.00019121170044 1.0000 
4194304 339.139981985092 84.6022887229919 8.27312469482422e-05 4099297.3573 62.7795720100403 5.4021 62.7795720100403 62.7795720100403 53.6011781692505 53.6012170314789 9.1783549785614 2.00009560585022 2.0000958442688 0 2.38418579101562e-07 0.8538 0.8538 1.0000 0.0000 2.00009608268738 2.00009560585022 2.00009560585022 2.00009560585022 1.0000 
