#set_size_in_keys sim_num_insn sim_num_refs sim_elapsed_time sim_inst_rate sim_num_branches sim_IPB bpred_2lev.lookups bpred_2lev.updates bpred_2lev.addr_hits bpred_2lev.dir_hits bpred_2lev.misses bpred_2lev.jr_hits bpred_2lev.jr_seen bpred_2lev.jr_non_ras_hits.PP bpred_2lev.jr_non_ras_seen.PP bpred_2lev.bpred_addr_rate bpred_2lev.bpred_dir_rate bpred_2lev.bpred_jr_rate bpred_2lev.bpred_jr_non_ras_rate.PP bpred_2lev.retstack_pushes bpred_2lev.retstack_pops bpred_2lev.used_ras.PP bpred_2lev.ras_hits.PP bpred_2lev.ras_rate.PP
4096 148.8203125 45.93896484375 0.000244140625 609568.0000 26.480712890625 5.6200 26.480712890625 26.480712890625 20.489501953125 20.5205078125 5.960205078125 2.08984375 2.08984375 0 0 0.7738 0.7749 1.0000 <error: 2.09033203125 2.08984375 2.08984375 2.08984375 1.0000 
8192 156.869995117188 47.1417236328125 0.0001220703125 1285079.0000 27.9202880859375 5.6185 27.9202880859375 27.9202880859375 21.5826416015625 21.59814453125 6.3221435546875 2.044921875 2.044921875 0 0 0.7730 0.7736 1.0000 <error: 2.045166015625 2.044921875 2.044921875 2.044921875 1.0000 
16384 163.383544921875 48.4252319335938 6.103515625e-05 2676876.0000 29.1468505859375 5.6055 29.1468505859375 29.1468505859375 22.43408203125 22.4415893554688 6.70526123046875 2.0224609375 2.0224609375 0 0 0.7697 0.7699 1.0000 <error: 2.0225830078125 2.0224609375 2.0224609375 2.0224609375 1.0000 
32768 171.116333007812 50.211181640625 3.0517578125e-05 5607140.0000 30.5403747558594 5.6030 30.5403747558594 30.5403747558594 23.2713012695312 23.275146484375 7.26522827148438 2.01123046875 2.01123046875 0 0 0.7620 0.7621 1.0000 <error: 2.01129150390625 2.01123046875 2.01123046875 2.01123046875 1.0000 
65536 180.183609008789 52.25146484375 3.0517578125e-05 5904256.5000 32.1668395996094 5.6015 32.1668395996094 32.1668395996094 24.4625091552734 24.4645233154297 7.70231628417969 2.005615234375 2.005615234375 0 0 0.7605 0.7606 1.0000 <error: 2.00564575195312 2.005615234375 2.005615234375 2.005615234375 1.0000 
131072 191.627113342285 54.6799240112305 4.57763671875e-05 4186158.1667 34.2097778320312 5.6015 34.2097778320312 34.2097778320312 26.1559600830078 26.1569595336914 8.05281829833984 2.0028076171875 2.0028076171875 0 0 0.7646 0.7646 1.0000 <error: 2.00282287597656 2.0028076171875 2.0028076171875 2.0028076171875 1.0000 
262144 198.056037902832 56.407398223877 4.9591064453125e-05 3993784.7692 35.437255859375 5.5889 35.437255859375 35.437255859375 26.9222755432129 26.9227561950684 8.51449966430664 2.00140380859375 2.00140380859375 0 0 0.7597 0.7597 1.0000 <error: 2.00141143798828 2.00140380859375 2.00140380859375 2.00140380859375 1.0000 
524288 210.074001312256 58.9096622467041 5.14984130859375e-05 4079232.5185 37.5047168731689 5.6013 37.5047168731689 37.5047168731689 28.5516033172607 28.551851272583 8.95286560058594 2.00070190429688 2.00070190429688 0 0 0.7613 0.7613 1.0000 <error: 2.00070571899414 2.00070190429688 2.00070190429688 2.00070190429688 1.0000 
1048576 217.232731819153 60.7416467666626 5.43594360351562e-05 3996228.5789 38.8350257873535 5.5937 38.8350257873535 38.8350257873535 29.4121599197388 29.4122819900513 9.42274379730225 2.00035095214844 2.00035095214844 0 0 0.7574 0.7574 1.0000 <error: 2.00035285949707 2.00035095214844 2.00035095214844 2.00035095214844 1.0000 
2097152 311.199983596802 79.917839050293 7.86781311035156e-05 3955355.5636 55.8023271560669 5.5768 55.8023271560669 55.8023271560669 46.0782337188721 46.0783128738403 9.72401428222656 2.00019121170044 2.0001916885376 0 4.76837158203125e-07 0.8257 0.8257 1.0000 0.0000 2.00019216537476 2.00019121170044 2.00019121170044 2.00019121170044 1.0000 
4194304 339.139981985092 84.6022887229919 4.60147857666016e-05 7370239.2902 62.7795720100403 5.4021 62.7795720100403 62.7795720100403 53.0943779945374 53.0944173336029 9.68515467643738 2.00009560585022 2.0000958442688 0 2.38418579101562e-07 0.8457 0.8457 1.0000 0.0000 2.00009608268738 2.00009560585022 2.00009560585022 2.00009560585022 1.0000 
