#set_size_in_keys sim_num_insn sim_num_refs sim_elapsed_time sim_inst_rate sim_num_branches sim_IPB bpred_2lev.lookups bpred_2lev.updates bpred_2lev.addr_hits bpred_2lev.dir_hits bpred_2lev.misses bpred_2lev.jr_hits bpred_2lev.jr_seen bpred_2lev.jr_non_ras_hits.PP bpred_2lev.jr_non_ras_seen.PP bpred_2lev.bpred_addr_rate bpred_2lev.bpred_dir_rate bpred_2lev.bpred_jr_rate bpred_2lev.bpred_jr_non_ras_rate.PP bpred_2lev.retstack_pushes bpred_2lev.retstack_pops bpred_2lev.used_ras.PP bpred_2lev.ras_hits.PP bpred_2lev.ras_rate.PP
4096 148.8203125 45.93896484375 0.000244140625 609568.0000 26.480712890625 5.6200 26.480712890625 26.480712890625 19.81640625 19.849609375 6.631103515625 2.08984375 2.08984375 0 0 0.7483 0.7496 1.0000 <error: 2.09033203125 2.08984375 2.08984375 2.08984375 1.0000 
8192 156.869995117188 47.1417236328125 0.0001220703125 1285079.0000 27.9202880859375 5.6185 27.9202880859375 27.9202880859375 20.9498291015625 20.9654541015625 6.954833984375 2.044921875 2.044921875 0 0 0.7503 0.7509 1.0000 <error: 2.045166015625 2.044921875 2.044921875 2.044921875 1.0000 
16384 163.383544921875 48.4252319335938 6.103515625e-05 2676876.0000 29.1468505859375 5.6055 29.1468505859375 29.1468505859375 21.7642211914062 21.771484375 7.3753662109375 2.0224609375 2.0224609375 0 0 0.7467 0.7470 1.0000 <error: 2.0225830078125 2.0224609375 2.0224609375 2.0224609375 1.0000 
32768 171.116333007812 50.211181640625 3.0517578125e-05 5607140.0000 30.5403747558594 5.6030 30.5403747558594 30.5403747558594 22.5671691894531 22.5712585449219 7.9691162109375 2.01123046875 2.01123046875 0 0 0.7389 0.7391 1.0000 <error: 2.01129150390625 2.01123046875 2.01123046875 2.01123046875 1.0000 
65536 180.183609008789 52.25146484375 3.0517578125e-05 5904256.5000 32.1668395996094 5.6015 32.1668395996094 32.1668395996094 23.7167816162109 23.7188110351562 8.44802856445312 2.005615234375 2.005615234375 0 0 0.7373 0.7374 1.0000 <error: 2.00564575195312 2.005615234375 2.005615234375 2.005615234375 1.0000 
131072 191.627113342285 54.6799240112305 4.57763671875e-05 4186158.1667 34.2097778320312 5.6015 34.2097778320312 34.2097778320312 25.3831787109375 25.3842010498047 8.82557678222656 2.0028076171875 2.0028076171875 0 0 0.7420 0.7420 1.0000 <error: 2.00282287597656 2.0028076171875 2.0028076171875 2.0028076171875 1.0000 
262144 198.056037902832 56.407398223877 4.57763671875e-05 4326600.1667 35.437255859375 5.5889 35.437255859375 35.437255859375 26.1125793457031 26.1130867004395 9.32416915893555 2.00140380859375 2.00140380859375 0 0 0.7369 0.7369 1.0000 <error: 2.00141143798828 2.00140380859375 2.00140380859375 2.00140380859375 1.0000 
524288 210.074001312256 58.9096622467041 5.14984130859375e-05 4079232.5185 37.5047168731689 5.6013 37.5047168731689 37.5047168731689 27.7502269744873 27.7504653930664 9.75425148010254 2.00070190429688 2.00070190429688 0 0 0.7399 0.7399 1.0000 <error: 2.00070571899414 2.00070190429688 2.00070190429688 2.00070190429688 1.0000 
1048576 217.232731819153 60.7416467666626 5.24520874023438e-05 4141545.9818 38.8350257873535 5.5937 38.8350257873535 38.8350257873535 28.5822353363037 28.5823640823364 10.2526617050171 2.00035095214844 2.00035095214844 0 0 0.7360 0.7360 1.0000 <error: 2.00035285949707 2.00035095214844 2.00035095214844 2.00035095214844 1.0000 
2097152 311.199983596802 79.917839050293 7.86781311035156e-05 3955355.5636 55.8023271560669 5.5768 55.8023271560669 55.8023271560669 45.2773470878601 45.2774286270142 10.5248985290527 2.00019121170044 2.0001916885376 0 4.76837158203125e-07 0.8114 0.8114 1.0000 0.0000 2.00019216537476 2.00019121170044 2.00019121170044 2.00019121170044 1.0000 
4194304 339.139981985092 84.6022887229919 8.82148742675781e-05 3844476.1703 62.7795720100403 5.4021 62.7795720100403 62.7795720100403 52.2903618812561 52.2904047966003 10.4891672134399 2.00009560585022 2.0000958442688 0 2.38418579101562e-07 0.8329 0.8329 1.0000 0.0000 2.00009608268738 2.00009560585022 2.00009560585022 2.00009560585022 1.0000 
