#set_size_in_keys sim_num_insn sim_num_refs sim_elapsed_time sim_inst_rate il1.accesses il1.hits il1.misses il1.replacements il1.writebacks il1.invalidations il1.miss_rate il1.repl_rate il1.wb_rate il1.inv_rate dl1.accesses dl1.hits dl1.misses dl1.replacements dl1.writebacks dl1.invalidations dl1.miss_rate dl1.repl_rate dl1.wb_rate dl1.inv_rate dl2.accesses dl2.hits dl2.misses dl2.replacements dl2.writebacks dl2.invalidations dl2.miss_rate dl2.repl_rate dl2.wb_rate dl2.inv_rate itlb.accesses itlb.hits itlb.misses itlb.replacements itlb.writebacks itlb.invalidations itlb.miss_rate itlb.repl_rate itlb.wb_rate itlb.inv_rate dtlb.accesses dtlb.hits dtlb.misses dtlb.replacements dtlb.writebacks dtlb.invalidations dtlb.miss_rate dtlb.repl_rate dtlb.wb_rate dtlb.inv_rate ld_text_base ld_text_size ld_data_base ld_data_size ld_stack_base ld_stack_size ld_prog_entry ld_environ_base ld_target_big_endian mem.page_count mem.page_mem mem.ptab_misses mem.ptab_accesses mem.ptab_miss_rate
4096 148.8203125 45.93896484375 0.000244140625 609568.0000 148.8203125 148.69482421875 0.12548828125 0.06982421875 0 0 0.0008 0.0005 0.0000 0.0000 45.9560546875 45.38232421875 0.57373046875 0.51123046875 0.48486328125 0 0.0125 0.0111 0.0106 0.0000 1.18408203125 0.83203125 0.35205078125 0.08349609375 0.04296875 0 0.2973 0.0705 0.0363 0.0000 148.8203125 148.818359375 0.001953125 0 0 0 0.0000 0.0000 0.0000 0.0000 45.9560546875 45.953369140625 0.002685546875 0 0 0 0.0001 0.0000 0.0000 0.0000 0x00400000 7.87109375 0x10000000 1 0x7fffc000 4 0x00400140 0x7fff8000 0 0.004638671875 76k 0.004638671875 735.71240234375 0.0000 
8192 156.869995117188 47.1417236328125 0.0001220703125 1285079.0000 156.869995117188 156.80712890625 0.0628662109375 0.0347900390625 0 0 0.0004 0.0002 0.0000 0.0000 47.1502685546875 46.45361328125 0.6966552734375 0.6654052734375 0.6041259765625 0 0.0148 0.0141 0.0128 0.0000 1.3636474609375 1.125244140625 0.2384033203125 0.0416259765625 0.0213623046875 0 0.1748 0.0305 0.0157 0.0000 156.869995117188 156.869018554688 0.0009765625 0 0 0 0.0000 0.0000 0.0000 0.0000 47.1502685546875 47.1484375 0.0018310546875 0 0 0 0.0000 0.0000 0.0000 0.0000 0x00400000 3.939453125 0x10000000 0.5 0x7fffc000 2 0x00400140 0x7fff8000 0 0.0028076171875 92k 0.0028076171875 746.0634765625 0.0000 
16384 163.383544921875 48.4252319335938 6.103515625e-05 2676876.0000 163.383544921875 163.350708007812 0.0328369140625 0.018798828125 0 0 0.0002 0.0001 0.0000 0.0000 48.4295043945312 47.653076171875 0.77642822265625 0.76080322265625 0.71783447265625 0 0.0160 0.0157 0.0148 0.0000 1.527099609375 1.3453369140625 0.1817626953125 0.02099609375 0.01104736328125 0 0.1190 0.0137 0.0072 0.0000 163.383544921875 163.383056640625 0.00048828125 0 0 0 0.0000 0.0000 0.0000 0.0000 48.4295043945312 48.4281005859375 0.00140380859375 0 0 0 0.0000 0.0000 0.0000 0.0000 0x00400000 1.970703125 0x10000000 0.25 0x7fffc000 1 0x00400140 0x7fff8000 0 0.00189208984375 124k 0.00189208984375 762.54052734375 0.0000 
32768 171.116333007812 50.211181640625 6.103515625e-05 2803570.0000 171.116333007812 171.10009765625 0.0162353515625 0.009185791015625 0 0 0.0001 0.0001 0.0000 0.0000 50.2133178710938 49.348876953125 0.86444091796875 0.85662841796875 0.8187255859375 0 0.0172 0.0171 0.0163 0.0000 1.69940185546875 1.54620361328125 0.1531982421875 0.01031494140625 0.00537109375 0 0.0901 0.0061 0.0032 0.0000 171.116333007812 171.116088867188 0.000244140625 0 0 0 0.0000 0.0000 0.0000 0.0000 50.2133178710938 50.2121276855469 0.001190185546875 0 0 0 0.0000 0.0000 0.0000 0.0000 0x00400000 0.986328125 0x10000000 0.125 0x7fffc000 0.5 0x00400140 0x7fff8000 0 0.001434326171875 188k 0.001434326171875 790.971496582031 0.0000 
65536 180.183609008789 52.25146484375 4.57763671875e-05 3936171.0000 180.183609008789 180.175430297852 0.0081787109375 0.0046539306640625 0 0 0.0000 0.0000 0.0000 0.0000 52.2525329589844 51.2348480224609 1.01768493652344 1.01377868652344 0.95733642578125 0 0.0195 0.0194 0.0183 0.0000 1.98320007324219 1.84402465820312 0.139175415039062 0.0052337646484375 0.00274658203125 0 0.0702 0.0026 0.0014 0.0000 180.183609008789 180.183486938477 0.0001220703125 0 0 0 0.0000 0.0000 0.0000 0.0000 52.2525329589844 52.2514495849609 0.0010833740234375 0 0 0 0.0000 0.0000 0.0000 0.0000 0x00400000 0.4931640625 0x10000000 0.0625 0x7fffc000 0.25 0x00400140 0x7fff8000 0 0.0012054443359375 316k 0.0012054443359375 828.279266357422 0.0000 
131072 191.627113342285 54.6799240112305 5.340576171875e-05 3588135.5714 191.627113342285 191.623054504395 0.004058837890625 0.00229644775390625 0 0 0.0000 0.0000 0.0000 0.0000 54.6804580688477 53.4602890014648 1.22016906738281 1.21821594238281 1.10501098632812 0 0.0223 0.0223 0.0202 0.0000 2.32923889160156 2.19718170166016 0.132057189941406 0.00258636474609375 0.0013427734375 0 0.0567 0.0011 0.0006 0.0000 191.627113342285 191.627052307129 6.103515625e-05 0 0 0 0.0000 0.0000 0.0000 0.0000 54.6804580688477 54.6792373657227 0.001220703125 0.000244140625 0.00023651123046875 0 0.0000 0.0000 0.0000 0.0000 0x00400000 0.24658203125 0x10000000 0.03125 0x7fffc000 0.125 0x00400140 0x7fff8000 0 0.00109100341796875 572k 0.00109100341796875 877.389251708984 0.0000 
262144 198.056037902832 56.407398223877 0.000102996826171875 1922933.4074 198.056037902832 198.053993225098 0.002044677734375 0.00116348266601562 0 0 0.0000 0.0000 0.0000 0.0000 56.4076652526855 55.0925369262695 1.31512832641602 1.31415176391602 1.22550964355469 0 0.0233 0.0233 0.0217 0.0000 2.54268264770508 2.41413879394531 0.128543853759766 0.00130844116210938 0.0006866455078125 0 0.0506 0.0005 0.0003 0.0000 198.056037902832 198.056007385254 3.0517578125e-05 0 0 0 0.0000 0.0000 0.0000 0.0000 56.4076652526855 56.4047927856445 0.00287246704101562 0.00238418579101562 0.00238037109375 0 0.0001 0.0000 0.0000 0.0000 0x00400000 0.123291015625 0x10000000 0.015625 0x7fffc000 0.0625 0x00400140 0x7fff8000 0 0.00103378295898438 1084k 0.00103378295898438 905.799423217773 0.0000 
524288 210.074001312256 58.9096622467041 0.000108718872070312 1932268.0351 210.074001312256 210.073003768921 0.000997543334960938 0.000560760498046875 0 0 0.0000 0.0000 0.0000 0.0000 58.9097957611084 57.3872756958008 1.52252006530762 1.52203178405762 1.37705421447754 0 0.0258 0.0258 0.0234 0.0000 2.90057182312012 2.77242469787598 0.128147125244141 0.00314712524414062 0.00257110595703125 0 0.0442 0.0011 0.0009 0.0000 210.074001312256 210.073986053467 1.52587890625e-05 0 0 0 0.0000 0.0000 0.0000 0.0000 58.9097957611084 58.9054565429688 0.00433921813964844 0.00409507751464844 0.00409317016601562 0 0.0001 0.0001 0.0001 0.0000 0x00400000 0.0616455078125 0x10000000 0.0078125 0x7fffc000 0.03125 0x00400140 0x7fff8000 0 0.00100517272949219 2108k 0.00100517272949219 958.495567321777 0.0000 
1048576 217.232731819153 60.7416467666626 0.000116348266601562 1867090.4016 217.232731819153 217.232218742371 0.000513076782226562 0.000292778015136719 0 0 0.0000 0.0000 0.0000 0.0000 60.7417135238647 59.1201267242432 1.62158679962158 1.62134265899658 1.50086307525635 0 0.0267 0.0267 0.0247 0.0000 3.12296295166016 2.79428005218506 0.328682899475098 0.266182899475098 0.262367248535156 0 0.1052 0.0852 0.0840 0.0000 217.232731819153 217.232724189758 7.62939453125e-06 0 0 0 0.0000 0.0000 0.0000 0.0000 60.7417135238647 60.736400604248 0.00531291961669922 0.00519084930419922 0.00518989562988281 0 0.0001 0.0001 0.0001 0.0000 0x00400000 0.03082275390625 0x10000000 0.00390625 0x7fffc000 0.015625 0x00400140 0x7fff8000 0 0.000990867614746094 4156k 0.000990867614746094 990.604339599609 0.0000 
2097152 311.199983596802 79.917839050293 0.0001678466796875 1854072.9205 311.199983596802 311.199605464935 0.000378131866455078 0.000256061553955078 0 0 0.0000 0.0000 0.0000 0.0000 79.9178729057312 77.8419966697693 2.07587623596191 2.07575416564941 1.62042617797852 0 0.0260 0.0260 0.0203 0.0000 3.69668054580688 2.95123481750488 0.745445728302002 0.714195728302002 0.461611270904541 0 0.2017 0.1932 0.1249 0.0000 311.199983596802 311.199979782104 3.814697265625e-06 0 0 0 0.0000 0.0000 0.0000 0.0000 79.9178729057312 79.9092974662781 0.008575439453125 0.008514404296875 0.00657415390014648 0 0.0001 0.0001 0.0001 0.0000 0x00400000 0.015411376953125 0x10000000 0.001953125 0x7fffc000 0.0078125 0x00400140 0x7fff8000 0 0.00197124481201172 16536k 0.0136356353759766 1404.7306728363 0.0000 
4194304 339.139981985092 84.6022887229919 0.000171899795532227 1972893.4577 339.139981985092 339.139790534973 0.000191450119018555 0.000130414962768555 0 0 0.0000 0.0000 0.0000 0.0000 84.6023056507111 82.4196553230286 2.1826503276825 2.18258929252625 1.70646286010742 0 0.0258 0.0258 0.0202 0.0000 3.88930463790894 3.12246441841125 0.766840219497681 0.751215219497681 0.498160839080811 0 0.1972 0.1931 0.1281 0.0000 339.139981985092 339.139980077744 1.9073486328125e-06 0 0 0 0.0000 0.0000 0.0000 0.0000 84.6023056507111 84.5938320159912 0.00847363471984863 0.00844311714172363 0.00648689270019531 0 0.0001 0.0001 0.0001 0.0000 0x00400000 0.0077056884765625 0x10000000 0.0009765625 0x7fffc000 0.00390625 0x00400140 0x7fff8000 0 0.0019676685333252 33012k 0.00779986381530762 1525.81203556061 0.0000 
