#set_size_in_keys sim_num_insn sim_num_refs sim_elapsed_time sim_inst_rate sim_num_branches sim_IPB bpred_2lev.lookups bpred_2lev.updates bpred_2lev.addr_hits bpred_2lev.dir_hits bpred_2lev.misses bpred_2lev.jr_hits bpred_2lev.jr_seen bpred_2lev.jr_non_ras_hits.PP bpred_2lev.jr_non_ras_seen.PP bpred_2lev.bpred_addr_rate bpred_2lev.bpred_dir_rate bpred_2lev.bpred_jr_rate bpred_2lev.bpred_jr_non_ras_rate.PP bpred_2lev.retstack_pushes bpred_2lev.retstack_pops bpred_2lev.used_ras.PP bpred_2lev.ras_hits.PP bpred_2lev.ras_rate.PP
4096 255.353271484375 64.529296875 0.000244140625 1045927.0000 40.92724609375 6.2392 40.92724609375 40.92724609375 33.345703125 33.3740234375 7.55322265625 2.088134765625 2.08837890625 0 0 0.8148 0.8154 0.9999 <error: 2.0888671875 2.08837890625 2.08837890625 2.088134765625 0.9999 
8192 272.65576171875 67.5352783203125 0.0001220703125 2233596.0000 43.5723876953125 6.2575 43.5723876953125 43.5723876953125 35.642822265625 35.65673828125 7.9156494140625 2.0440673828125 2.044189453125 0 0 0.8180 0.8183 0.9999 <error: 2.04443359375 2.044189453125 2.044189453125 2.0440673828125 0.9999 
16384 291.353942871094 71.0889892578125 6.103515625e-05 4773543.0000 46.43798828125 6.2740 46.43798828125 46.43798828125 38.1111450195312 38.1178588867188 8.32012939453125 2.02203369140625 2.0220947265625 0 0 0.8207 0.8208 1.0000 <error: 2.022216796875 2.0220947265625 2.0220947265625 2.02203369140625 1.0000 
32768 310.316650390625 74.8450622558594 9.1552734375e-05 3389485.3333 49.3517150878906 6.2879 49.3517150878906 49.3517150878906 40.5509338378906 40.554443359375 8.79727172851562 2.01101684570312 2.01104736328125 0 0 0.8217 0.8217 1.0000 <error: 2.0111083984375 2.01104736328125 2.01104736328125 2.01101684570312 1.0000 
65536 329.571655273438 78.7245025634766 7.62939453125e-05 4319761.6000 52.3107757568359 6.3003 52.3107757568359 52.3107757568359 43.0325012207031 43.0343322753906 9.27644348144531 2.00550842285156 2.00552368164062 0 0 0.8226 0.8227 1.0000 <error: 2.00555419921875 2.00552368164062 2.00552368164062 2.00550842285156 1.0000 
131072 348.968002319336 82.6694717407227 8.392333984375e-05 4158175.8182 55.2936630249023 6.3112 55.2936630249023 55.2936630249023 45.5160522460938 45.516960144043 9.77670288085938 2.00275421142578 2.00276184082031 0 0 0.8232 0.8232 1.0000 <error: 2.00277709960938 2.00276184082031 2.00276184082031 2.00275421142578 1.0000 
262144 368.419044494629 86.6427612304688 8.7738037109375e-05 4199080.0870 58.286075592041 6.3209 58.286075592041 58.286075592041 47.9942321777344 47.994701385498 10.291374206543 2.00137710571289 2.00138092041016 0 0 0.8234 0.8234 1.0000 <error: 2.00138854980469 2.00138092041016 2.00138092041016 2.00137710571289 1.0000 
524288 387.838832855225 90.6175746917725 9.34600830078125e-05 4149780.5306 61.2732467651367 6.3297 61.2732467651367 61.2732467651367 50.4796333312988 50.4798603057861 10.7933864593506 2.00068855285645 2.00069046020508 0 0 0.8238 0.8238 1.0000 <error: 2.00069427490234 2.00069046020508 2.00069046020508 2.00068855285645 1.0000 
1048576 407.322026252747 94.6105041503906 9.82284545898438e-05 4146680.5922 64.2707653045654 6.3376 64.2707653045654 64.2707653045654 52.9653730392456 52.9654817581177 11.3052835464478 2.00034427642822 2.00034523010254 0 0 0.8241 0.8241 1.0000 <error: 2.00034713745117 2.00034523010254 2.00034523010254 2.00034427642822 1.0000 
2097152 426.827855587006 98.609757900238 0.000103473663330078 4124990.2811 67.2716708183289 6.3448 67.2716708183289 67.2716708183289 55.4529700279236 55.4530243873596 11.8186464309692 2.00017213821411 2.00017261505127 0 0 0.8243 0.8243 1.0000 <error: 2.00017356872559 2.00017261505127 2.00017261505127 2.00017213821411 1.0000 
4194304 446.32053232193 102.606563806534 0.000108957290649414 4096288.8271 70.2702252864838 6.3515 70.2702252864838 70.2702252864838 57.9386506080627 57.9386780261993 12.3315472602844 2.00008606910706 2.00008630752563 0 0 0.8245 0.8245 1.0000 <error: 2.00008678436279 2.00008630752563 2.00008630752563 2.00008606910706 1.0000 
