#set_size_in_keys sim_num_insn sim_num_refs sim_elapsed_time sim_inst_rate sim_num_branches sim_IPB bpred_2lev.lookups bpred_2lev.updates bpred_2lev.addr_hits bpred_2lev.dir_hits bpred_2lev.misses bpred_2lev.jr_hits bpred_2lev.jr_seen bpred_2lev.jr_non_ras_hits.PP bpred_2lev.jr_non_ras_seen.PP bpred_2lev.bpred_addr_rate bpred_2lev.bpred_dir_rate bpred_2lev.bpred_jr_rate bpred_2lev.bpred_jr_non_ras_rate.PP bpred_2lev.retstack_pushes bpred_2lev.retstack_pops bpred_2lev.used_ras.PP bpred_2lev.ras_hits.PP bpred_2lev.ras_rate.PP
4096 255.353271484375 64.529296875 0.000244140625 1045927.0000 40.92724609375 6.2392 40.92724609375 40.92724609375 32.51513671875 32.543212890625 8.384033203125 2.088134765625 2.08837890625 0 0 0.7945 0.7951 0.9999 <error: 2.0888671875 2.08837890625 2.08837890625 2.088134765625 0.9999 
8192 272.65576171875 67.5352783203125 0.0001220703125 2233596.0000 43.5723876953125 6.2575 43.5723876953125 43.5723876953125 34.7720947265625 34.786376953125 8.7860107421875 2.0440673828125 2.044189453125 0 0 0.7980 0.7984 0.9999 <error: 2.04443359375 2.044189453125 2.044189453125 2.0440673828125 0.9999 
16384 291.353942871094 71.0889892578125 0.0001220703125 2386771.5000 46.43798828125 6.2740 46.43798828125 46.43798828125 37.2171020507812 37.2244262695312 9.21356201171875 2.02203369140625 2.0220947265625 0 0 0.8014 0.8016 1.0000 <error: 2.022216796875 2.0220947265625 2.0220947265625 2.02203369140625 1.0000 
32768 310.316650390625 74.8450622558594 6.103515625e-05 5084228.0000 49.3517150878906 6.2879 49.3517150878906 49.3517150878906 39.6172790527344 39.6209411621094 9.73077392578125 2.01101684570312 2.01104736328125 0 0 0.8028 0.8028 1.0000 <error: 2.0111083984375 2.01104736328125 2.01104736328125 2.01101684570312 1.0000 
65536 329.571655273438 78.7245025634766 7.62939453125e-05 4319761.6000 52.3107757568359 6.3003 52.3107757568359 52.3107757568359 42.08447265625 42.0863037109375 10.2244720458984 2.00550842285156 2.00552368164062 0 0 0.8045 0.8045 1.0000 <error: 2.00555419921875 2.00552368164062 2.00552368164062 2.00550842285156 1.0000 
131072 348.968002319336 82.6694717407227 8.392333984375e-05 4158175.8182 55.2936630249023 6.3112 55.2936630249023 55.2936630249023 44.5375900268555 44.5384826660156 10.7551803588867 2.00275421142578 2.00276184082031 0 0 0.8055 0.8055 1.0000 <error: 2.00277709960938 2.00276184082031 2.00276184082031 2.00275421142578 1.0000 
262144 368.419044494629 86.6427612304688 8.7738037109375e-05 4199080.0870 58.286075592041 6.3209 58.286075592041 58.286075592041 46.9904899597168 46.9909553527832 11.2951202392578 2.00137710571289 2.00138092041016 0 0 0.8062 0.8062 1.0000 <error: 2.00138854980469 2.00138092041016 2.00138092041016 2.00137710571289 1.0000 
524288 387.838832855225 90.6175746917725 9.1552734375e-05 4236234.2917 61.2732467651367 6.3297 61.2732467651367 61.2732467651367 49.452449798584 49.4526767730713 11.8205699920654 2.00068855285645 2.00069046020508 0 0 0.8071 0.8071 1.0000 <error: 2.00069427490234 2.00069046020508 2.00069046020508 2.00068855285645 1.0000 
1048576 407.322026252747 94.6105041503906 9.82284545898438e-05 4146680.5922 64.2707653045654 6.3376 64.2707653045654 64.2707653045654 51.9102563858032 51.9103670120239 12.3603982925415 2.00034427642822 2.00034523010254 0 0 0.8077 0.8077 1.0000 <error: 2.00034713745117 2.00034523010254 2.00034523010254 2.00034427642822 1.0000 
2097152 426.827855587006 98.609757900238 0.000103473663330078 4124990.2811 67.2716708183289 6.3448 67.2716708183289 67.2716708183289 54.37260389328 54.3726582527161 12.8990125656128 2.00017213821411 2.00017261505127 0 0 0.8083 0.8083 1.0000 <error: 2.00017356872559 2.00017261505127 2.00017261505127 2.00017213821411 1.0000 
4194304 446.32053232193 102.606563806534 0.000108957290649414 4096288.8271 70.2702252864838 6.3515 70.2702252864838 70.2702252864838 56.8303833007812 56.8304116725922 13.4398136138916 2.00008606910706 2.00008630752563 0 0 0.8087 0.8087 1.0000 <error: 2.00008678436279 2.00008630752563 2.00008630752563 2.00008606910706 1.0000 
