#set_size_in_keys sim_num_insn sim_num_refs sim_elapsed_time sim_inst_rate il1.accesses il1.hits il1.misses il1.replacements il1.writebacks il1.invalidations il1.miss_rate il1.repl_rate il1.wb_rate il1.inv_rate dl1.accesses dl1.hits dl1.misses dl1.replacements dl1.writebacks dl1.invalidations dl1.miss_rate dl1.repl_rate dl1.wb_rate dl1.inv_rate dl2.accesses dl2.hits dl2.misses dl2.replacements dl2.writebacks dl2.invalidations dl2.miss_rate dl2.repl_rate dl2.wb_rate dl2.inv_rate itlb.accesses itlb.hits itlb.misses itlb.replacements itlb.writebacks itlb.invalidations itlb.miss_rate itlb.repl_rate itlb.wb_rate itlb.inv_rate dtlb.accesses dtlb.hits dtlb.misses dtlb.replacements dtlb.writebacks dtlb.invalidations dtlb.miss_rate dtlb.repl_rate dtlb.wb_rate dtlb.inv_rate ld_text_base ld_text_size ld_data_base ld_data_size ld_stack_base ld_stack_size ld_prog_entry ld_environ_base ld_target_big_endian mem.page_count mem.page_mem mem.ptab_misses mem.ptab_accesses mem.ptab_miss_rate
4096 255.353271484375 64.529296875 0.00341796875 74709.0714 255.353271484375 255.24755859375 0.105712890625 0.043212890625 0 0 0.0004 0.0002 0.0000 0.0000 64.54638671875 63.317626953125 1.228759765625 1.166259765625 1.022705078125 0 0.0190 0.0181 0.0158 0.0000 2.357177734375 2.02587890625 0.331298828125 0 0 0 0.1405 0.0000 0.0000 0.0000 255.353271484375 255.351318359375 0.001953125 0 0 0 0.0000 0.0000 0.0000 0.0000 64.54638671875 64.5439453125 0.00244140625 0 0 0 0.0000 0.0000 0.0000 0.0000 0x00400000 7.27734375 0x10000000 1 0x7fffc000 4 0x00400140 0x7fff8000 0 0.00439453125 72k 0.00439453125 1195.4423828125 0.0000 
8192 272.65576171875 67.5352783203125 0.0025634765625 106361.7143 272.65576171875 272.602783203125 0.052978515625 0.021728515625 0 0 0.0002 0.0001 0.0000 0.0000 67.5438232421875 65.12255859375 2.4212646484375 2.3900146484375 2.0311279296875 0 0.0358 0.0354 0.0301 0.0000 4.50537109375 4.277099609375 0.228271484375 0 0 0 0.0507 0.0000 0.0000 0.0000 272.65576171875 272.65478515625 0.0009765625 0 0 0 0.0000 0.0000 0.0000 0.0000 67.5438232421875 67.5421142578125 0.001708984375 0 0 0 0.0000 0.0000 0.0000 0.0000 0x00400000 3.642578125 0x10000000 0.5 0x7fffc000 2 0x00400140 0x7fff8000 0 0.002685546875 88k 0.002685546875 1248.20239257812 0.0000 
16384 291.353942871094 71.0889892578125 0.00201416015625 144652.8182 291.353942871094 291.327392578125 0.02655029296875 0.01092529296875 0 0 0.0001 0.0000 0.0000 0.0000 71.09326171875 67.2299194335938 3.86334228515625 3.84771728515625 3.2027587890625 0 0.0543 0.0541 0.0451 0.0000 7.0926513671875 6.91595458984375 0.17669677734375 0 0 0 0.0249 0.0000 0.0000 0.0000 291.353942871094 291.353454589844 0.00048828125 0 0 0 0.0000 0.0000 0.0000 0.0000 71.09326171875 71.0919189453125 0.0013427734375 0 0 0 0.0000 0.0000 0.0000 0.0000 0x00400000 1.822265625 0x10000000 0.25 0x7fffc000 1 0x00400140 0x7fff8000 0 0.0018310546875 120k 0.0018310546875 1318.85400390625 0.0000 
32768 310.316650390625 74.8450622558594 0.001708984375 181579.5714 310.316650390625 310.303314208984 0.013336181640625 0.005523681640625 0 0 0.0000 0.0000 0.0000 0.0000 74.8471984863281 69.4692077636719 5.37799072265625 5.37017822265625 4.42514038085938 0 0.0719 0.0717 0.0591 0.0000 9.81646728515625 9.66555786132812 0.150909423828125 0 0 0 0.0154 0.0000 0.0000 0.0000 310.316650390625 310.31640625 0.000244140625 0 0 0 0.0000 0.0000 0.0000 0.0000 74.8471984863281 74.8460388183594 0.00115966796875 0 0 0 0.0000 0.0000 0.0000 0.0000 0x00400000 0.912109375 0x10000000 0.125 0x7fffc000 0.5 0x00400140 0x7fff8000 0 0.00140380859375 184k 0.00140380859375 1396.59271240234 0.0000 
65536 329.571655273438 78.7245025634766 0.001556396484375 211753.0196 329.571655273438 329.565002441406 0.00665283203125 0.00274658203125 0 0 0.0000 0.0000 0.0000 0.0000 78.7255706787109 71.7952880859375 6.93028259277344 6.92637634277344 5.67066955566406 0 0.0880 0.0880 0.0720 0.0000 12.6076049804688 12.4696655273438 0.137939453125 0 0 0 0.0109 0.0000 0.0000 0.0000 329.571655273438 329.571533203125 0.0001220703125 0 0 0 0.0000 0.0000 0.0000 0.0000 78.7255706787109 78.7245025634766 0.001068115234375 0 0 0 0.0000 0.0000 0.0000 0.0000 0x00400000 0.4560546875 0x10000000 0.0625 0x7fffc000 0.25 0x00400140 0x7fff8000 0 0.001190185546875 312k 0.001190185546875 1478.55361938477 0.0000 
131072 348.968002319336 82.6694717407227 0.00147247314453125 236994.4767 348.968002319336 348.964668273926 0.00333404541015625 0.00138092041015625 0 0 0.0000 0.0000 0.0000 0.0000 82.6700057983398 74.2387008666992 8.43130493164062 8.42935180664062 6.87371826171875 0 0.1020 0.1020 0.0831 0.0000 15.3083572387695 15.1768798828125 0.131477355957031 0 0 0 0.0086 0.0000 0.0000 0.0000 348.968002319336 348.96794128418 6.103515625e-05 0 0 0 0.0000 0.0000 0.0000 0.0000 82.6700057983398 82.6687774658203 0.00122833251953125 0.00025177001953125 0.00023651123046875 0 0.0000 0.0000 0.0000 0.0000 0x00400000 0.22802734375 0x10000000 0.03125 0x7fffc000 0.125 0x00400140 0x7fff8000 0 0.0010833740234375 568k 0.0010833740234375 1562.61994934082 0.0000 
262144 368.419044494629 86.6427612304688 0.00136947631835938 269021.8440 368.419044494629 368.417381286621 0.0016632080078125 0.0006866455078125 0 0 0.0000 0.0000 0.0000 0.0000 86.6430282592773 76.7073249816895 9.93570327758789 9.93472671508789 8.07834243774414 0 0.1147 0.1147 0.0932 0.0000 18.0157089233398 17.8874740600586 0.12823486328125 0 0 0 0.0071 0.0000 0.0000 0.0000 368.419044494629 368.419013977051 3.0517578125e-05 0 0 0 0.0000 0.0000 0.0000 0.0000 86.6430282592773 86.2360877990723 0.406940460205078 0.406452178955078 0.380672454833984 0 0.0047 0.0047 0.0044 0.0000 0x00400000 0.114013671875 0x10000000 0.015625 0x7fffc000 0.0625 0x00400140 0x7fff8000 0 0.00102996826171875 1080k 0.00102996826171875 1647.66619873047 0.0000 
524288 387.838832855225 90.6175746917725 0.00121116638183594 320219.2850 387.838832855225 387.838001251221 0.00083160400390625 0.00034332275390625 0 0 0.0000 0.0000 0.0000 0.0000 90.6177082061768 79.2220211029053 11.3956871032715 11.3951988220215 9.24895668029785 0 0.1258 0.1258 0.1021 0.0000 20.6454753875732 20.5188579559326 0.126617431640625 0 0 0 0.0061 0.0000 0.0000 0.0000 387.838832855225 387.838817596436 1.52587890625e-05 0 0 0 0.0000 0.0000 0.0000 0.0000 90.6177082061768 89.2824878692627 1.33522033691406 1.33497619628906 1.26522254943848 0 0.0147 0.0147 0.0140 0.0000 0x00400000 0.0570068359375 0x10000000 0.0078125 0x7fffc000 0.03125 0x00400140 0x7fff8000 0 0.00100326538085938 2104k 0.00100326538085938 1732.94272994995 0.0000 
1048576 407.322026252747 94.6105041503906 0.000916481018066406 444441.3122 407.322026252747 407.32160949707 0.000416755676269531 0.000172615051269531 0 0 0.0000 0.0000 0.0000 0.0000 94.6105709075928 81.7600526809692 12.8505182266235 12.8502740859985 10.411036491394 0 0.1358 0.1358 0.1100 0.0000 23.2619714736938 23.1350650787354 0.126906394958496 0.00190639495849609 0.00170993804931641 0 0.0055 0.0001 0.0001 0.0000 407.322026252747 407.322018623352 7.62939453125e-06 0 0 0 0.0000 0.0000 0.0000 0.0000 94.6105709075928 92.13014793396 2.48042297363281 2.48030090332031 2.37492752075195 0 0.0262 0.0262 0.0251 0.0000 0x00400000 0.02850341796875 0x10000000 0.00390625 0x7fffc000 0.015625 0x00400140 0x7fff8000 0 0.000989913940429688 4152k 0.000989913940429688 1818.68523788452 0.0000 
2097152 426.827855587006 98.609757900238 0.000635623931884766 671510.0458 426.827855587006 426.827647686005 0.000207901000976562 8.58306884765625e-05 0 0 0.0000 0.0000 0.0000 0.0000 98.6097912788391 84.3339862823486 14.2758049964905 14.275682926178 11.5496101379395 0 0.1448 0.1448 0.1171 0.0000 25.8256230354309 24.687207698822 1.13841533660889 1.07591533660889 0.931780338287354 0 0.0441 0.0417 0.0361 0.0000 426.827855587006 426.827851772308 3.814697265625e-06 0 0 0 0.0000 0.0000 0.0000 0.0000 98.6097912788391 94.907283782959 3.70250749588013 3.70244646072388 3.57266616821289 0 0.0375 0.0375 0.0362 0.0000 0x00400000 0.014251708984375 0x10000000 0.001953125 0x7fffc000 0.0078125 0x00400140 0x7fff8000 0 0.000983238220214844 8248k 0.000983238220214844 1904.61900043488 0.0000 
4194304 446.32053232193 102.606563806534 0.000489950180053711 910950.8487 446.32053232193 446.320428133011 0.000104188919067383 4.31537628173828e-05 0 0 0.0000 0.0000 0.0000 0.0000 102.606580495834 86.9200835227966 15.6864969730377 15.6864359378815 12.6781129837036 0 0.1529 0.1529 0.1236 0.0000 28.3647141456604 25.9883806705475 2.37633347511292 2.34508347511292 1.97927904129028 0 0.0838 0.0827 0.0698 0.0000 446.32053232193 446.320530414581 1.9073486328125e-06 0 0 0 0.0000 0.0000 0.0000 0.0000 102.606580495834 97.6681809425354 4.93839955329895 4.93836903572083 4.79403519630432 0 0.0481 0.0481 0.0467 0.0000 0x00400000 0.0071258544921875 0x10000000 0.0009765625 0x7fffc000 0.00390625 0x00400140 0x7fff8000 0 0.000979900360107422 16440k 0.000979900360107422 1990.53928804398 0.0000 
