#set_size_in_keys sim_num_insn sim_num_refs sim_elapsed_time sim_inst_rate sim_num_branches sim_IPB bpred_2lev.lookups bpred_2lev.updates bpred_2lev.addr_hits bpred_2lev.dir_hits bpred_2lev.misses bpred_2lev.jr_hits bpred_2lev.jr_seen bpred_2lev.jr_non_ras_hits.PP bpred_2lev.jr_non_ras_seen.PP bpred_2lev.bpred_addr_rate bpred_2lev.bpred_dir_rate bpred_2lev.bpred_jr_rate bpred_2lev.bpred_jr_non_ras_rate.PP bpred_2lev.retstack_pushes bpred_2lev.retstack_pops bpred_2lev.used_ras.PP bpred_2lev.ras_hits.PP bpred_2lev.ras_rate.PP
4096 255.353271484375 64.529296875 0.000244140625 1045927.0000 40.92724609375 6.2392 40.92724609375 40.92724609375 31.68359375 31.70947265625 9.2177734375 2.088134765625 2.08837890625 0 0 0.7741 0.7748 0.9999 <error: 2.0888671875 2.08837890625 2.08837890625 2.088134765625 0.9999 
8192 272.65576171875 67.5352783203125 0.0001220703125 2233596.0000 43.5723876953125 6.2575 43.5723876953125 43.5723876953125 33.8990478515625 33.913330078125 9.6590576171875 2.0440673828125 2.044189453125 0 0 0.7780 0.7783 0.9999 <error: 2.04443359375 2.044189453125 2.044189453125 2.0440673828125 0.9999 
16384 291.353942871094 71.0889892578125 6.103515625e-05 4773543.0000 46.43798828125 6.2740 46.43798828125 46.43798828125 36.3303833007812 36.337646484375 10.100341796875 2.02203369140625 2.0220947265625 0 0 0.7823 0.7825 1.0000 <error: 2.022216796875 2.0220947265625 2.0220947265625 2.02203369140625 1.0000 
32768 310.316650390625 74.8450622558594 6.103515625e-05 5084228.0000 49.3517150878906 6.2879 49.3517150878906 49.3517150878906 38.7177124023438 38.7213134765625 10.6304016113281 2.01101684570312 2.01104736328125 0 0 0.7845 0.7846 1.0000 <error: 2.0111083984375 2.01104736328125 2.01104736328125 2.01101684570312 1.0000 
65536 329.571655273438 78.7245025634766 7.62939453125e-05 4319761.6000 52.3107757568359 6.3003 52.3107757568359 52.3107757568359 41.1715087890625 41.1732330322266 11.1375427246094 2.00550842285156 2.00552368164062 0 0 0.7871 0.7871 1.0000 <error: 2.00555419921875 2.00552368164062 2.00552368164062 2.00550842285156 1.0000 
131072 348.968002319336 82.6694717407227 8.392333984375e-05 4158175.8182 55.2936630249023 6.3112 55.2936630249023 55.2936630249023 43.6180877685547 43.6189956665039 11.6746673583984 2.00275421142578 2.00276184082031 0 0 0.7888 0.7889 1.0000 <error: 2.00277709960938 2.00276184082031 2.00276184082031 2.00275421142578 1.0000 
262144 368.419044494629 86.6427612304688 8.7738037109375e-05 4199080.0870 58.286075592041 6.3209 58.286075592041 58.286075592041 46.0573768615723 46.0578308105469 12.2282447814941 2.00137710571289 2.00138092041016 0 0 0.7902 0.7902 1.0000 <error: 2.00138854980469 2.00138092041016 2.00138092041016 2.00137710571289 1.0000 
524288 387.838832855225 90.6175746917725 9.34600830078125e-05 4149780.5306 61.2732467651367 6.3297 61.2732467651367 61.2732467651367 48.51393699646 48.5141716003418 12.7590751647949 2.00068855285645 2.00069046020508 0 0 0.7918 0.7918 1.0000 <error: 2.00069427490234 2.00069046020508 2.00069046020508 2.00068855285645 1.0000 
1048576 407.322026252747 94.6105041503906 9.918212890625e-05 4106808.6635 64.2707653045654 6.3376 64.2707653045654 64.2707653045654 50.962963104248 50.9630756378174 13.307689666748 2.00034427642822 2.00034523010254 0 0 0.7929 0.7929 1.0000 <error: 2.00034713745117 2.00034523010254 2.00034523010254 2.00034427642822 1.0000 
2097152 426.827855587006 98.609757900238 0.000103950500488281 4106068.3073 67.2716708183289 6.3448 67.2716708183289 67.2716708183289 53.4150390625 53.4150924682617 13.8565783500671 2.00017213821411 2.00017261505127 0 0 0.7940 0.7940 1.0000 <error: 2.00017356872559 2.00017261505127 2.00017261505127 2.00017213821411 1.0000 
4194304 446.32053232193 102.606563806534 0.000109195709228516 4087344.9651 70.2702252864838 6.3515 70.2702252864838 70.2702252864838 55.8659105300903 55.8659386634827 14.4042866230011 2.00008606910706 2.00008630752563 0 0 0.7950 0.7950 1.0000 <error: 2.00008678436279 2.00008630752563 2.00008630752563 2.00008606910706 1.0000 
