#set_size_in_keys sim_num_insn sim_num_refs sim_elapsed_time sim_inst_rate sim_num_branches sim_IPB bpred_bimod.lookups bpred_bimod.updates bpred_bimod.addr_hits bpred_bimod.dir_hits bpred_bimod.misses bpred_bimod.jr_hits bpred_bimod.jr_seen bpred_bimod.jr_non_ras_hits.PP bpred_bimod.jr_non_ras_seen.PP bpred_bimod.bpred_addr_rate bpred_bimod.bpred_dir_rate bpred_bimod.bpred_jr_rate bpred_bimod.bpred_jr_non_ras_rate.PP bpred_bimod.retstack_pushes bpred_bimod.retstack_pops bpred_bimod.used_ras.PP bpred_bimod.ras_hits.PP bpred_bimod.ras_rate.PP
4096 92.43798828125 33.912841796875 0.000244140625 378626.0000 2.254150390625 41.0079 2.254150390625 2.254150390625 2.20654296875 2.23095703125 0.023193359375 0.014404296875 0.014404296875 0 0 0.9789 0.9897 1.0000 <error: 0.014892578125 0.014404296875 0.014404296875 0.014404296875 1.0000 
8192 90.861328125 32.9617919921875 0.0001220703125 744336.0000 2.1319580078125 42.6187 2.1319580078125 2.1319580078125 2.107177734375 2.119873046875 0.0120849609375 0.0081787109375 0.00830078125 0 0 0.9884 0.9943 0.9853 <error: 0.008544921875 0.00830078125 0.00830078125 0.0081787109375 0.9853 
16384 90.0557861328125 32.4808959960938 6.103515625e-05 1475474.0000 2.06597900390625 43.5899 2.06597900390625 2.06597900390625 2.0537109375 2.06011962890625 0.005859375 0.00408935546875 0.004150390625 0 0 0.9941 0.9972 0.9853 <error: 0.0042724609375 0.004150390625 0.004150390625 0.00408935546875 0.9853 
32768 89.6529235839844 32.2404479980469 3.0517578125e-05 2937747.0000 2.03298950195312 44.0991 2.03298950195312 2.03298950195312 2.02682495117188 2.02999877929688 0.00299072265625 0.002044677734375 0.0020751953125 0 0 0.9970 0.9985 0.9853 <error: 0.00213623046875 0.0020751953125 0.0020751953125 0.002044677734375 0.9853 
65536 89.4514617919922 32.1202239990234 1.52587890625e-05 5862291.0000 2.01649475097656 44.3599 2.01649475097656 2.01649475097656 2.01341247558594 2.01499938964844 0.001495361328125 0.0010223388671875 0.00103759765625 0 0 0.9985 0.9993 0.9853 <error: 0.001068115234375 0.00103759765625 0.00103759765625 0.0010223388671875 0.9853 
131072 89.3507385253906 32.0601119995117 1.52587890625e-05 5855690.0000 2.00824737548828 44.4919 2.00824737548828 2.00824737548828 2.00670623779297 2.00750732421875 0.00074005126953125 0.00051116943359375 0.000518798828125 0 0 0.9992 0.9996 0.9853 <error: 0.0005340576171875 0.000518798828125 0.000518798828125 0.00051116943359375 0.9853 
262144 89.3003692626953 32.0300559997559 7.62939453125e-06 11704778.0000 2.00412368774414 44.5583 2.00412368774414 2.00412368774414 2.00335311889648 2.00375366210938 0.000370025634765625 0.000255584716796875 0.0002593994140625 0 0 0.9996 0.9998 0.9853 <error: 0.00026702880859375 0.0002593994140625 0.0002593994140625 0.000255584716796875 0.9853 
524288 89.2751846313477 32.0150279998779 7.62939453125e-06 11701477.0000 2.00206184387207 44.5916 2.00206184387207 2.00206184387207 2.00167655944824 2.00187683105469 0.000185012817382812 0.000127792358398438 0.00012969970703125 0 0 0.9998 0.9999 0.9853 <error: 0.000133514404296875 0.00012969970703125 0.00012969970703125 0.000127792358398438 0.9853 
1048576 89.2744903564453 32.0163469314575 9.5367431640625e-06 9361108.8000 2.00178718566895 44.5974 2.00178718566895 2.00178718566895 2.00157070159912 2.00168132781982 0.000105857849121094 6.67572021484375e-05 6.77108764648438e-05 0 9.5367431640625e-07 0.9999 0.9999 0.9859 0.0000 6.866455078125e-05 6.67572021484375e-05 6.67572021484375e-05 6.67572021484375e-05 1.0000 
2097152 89.2666435241699 32.0111031532288 1.00135803222656e-05 8914558.0952 2.00126123428345 44.6052 2.00126123428345 2.00126123428345 2.00115299224854 2.00120830535889 5.29289245605469e-05 3.33786010742188e-05 3.38554382324219e-05 0 4.76837158203125e-07 0.9999 1.0000 0.9859 0.0000 3.4332275390625e-05 3.33786010742188e-05 3.33786010742188e-05 3.33786010742188e-05 1.0000 
4194304 89.2627182006836 32.0084812641144 8.82148742675781e-06 10118783.1351 2.00099754333496 44.6091 2.00099754333496 2.00099754333496 2.0009434223175 2.00097107887268 2.64644622802734e-05 1.66893005371094e-05 1.69277191162109e-05 0 2.38418579101562e-07 1.0000 1.0000 0.9859 0.0000 1.71661376953125e-05 1.66893005371094e-05 1.66893005371094e-05 1.66893005371094e-05 1.0000 
