Wed Mar 24 08:30:59 2004
Run as: "./simple -c  base_heapsort"
-------------------------------------------------------------------------------------------------
sim-cache                                     4096 |         4096 |         4096 |         4096 |         8192 |         8192 |         8192 |         8192 |        16384 |        16384 |        16384 |        16384 |        32768 |        32768 |        32768 |        32768 |        65536 |        65536 |        65536 |        65536 |       131072 |       131072 |       131072 |       131072 |       262144 |       262144 |       262144 |       262144 |       524288 |       524288 |       524288 |       524288 |      1048576 |      1048576 |      1048576 |      1048576 |      2097152 |      2097152 |      2097152 |      2097152 |      4194304 |      4194304 |      4194304 |      4194304 |
-cache:dl1 dl1:256:32:1:l -cache:dl2 dl2:131072:32:1:l -cache:il1 il1:256:32:1:l -cache:il2 dl2
-cache:dl1 dl1:256:32:1:l -cache:dl2 dl2:65536:32:1:l -cache:il1 il1:256:32:1:l -cache:il2 dl2
-cache:dl1 dl1:1:32:256:l -cache:dl2 dl2:1:32:131072:l -cache:il1 il1:1:32:256:l -cache:il2 dl2
-cache:dl1 dl1:1:32:256:l -cache:dl2 dl2:1:32:65536:l -cache:il1 il1:1:32:256:l -cache:il2 dl2
-------------------------------------------------------------------------------------------------
sim_num_insn                               1045927 |      1045927 |      1045927 |      1045927 |      2233596 |      2233596 |      2233596 |      2233596 |      4773543 |      4773543 |      4773543 |      4773543 |     10168456 |     10168456 |     10168456 |     10168456 |     21598808 |     21598808 |     21598808 |     21598808 |     45739934 |     45739934 |     45739934 |     45739934 |     96578842 |     96578842 |     96578842 |     96578842 |    203339246 |    203339246 |    203339246 |    203339246 |    427108101 |    427108101 |    427108101 |    427108101 |    895122891 |    895122891 |    895122891 |    895122891 |   1872003994 |   1872003994 |   1872003994 |   1872003994 |
sim_num_refs                                264312 |       264312 |       264312 |       264312 |       553249 |       553249 |       553249 |       553249 |      1164722 |      1164722 |      1164722 |      1164722 |      2452523 |      2452523 |      2452523 |      2452523 |      5159289 |      5159289 |      5159289 |      5159289 |     10835653 |     10835653 |     10835653 |     10835653 |     22712880 |     22712880 |     22712880 |     22712880 |     47509707 |     47509707 |     47509707 |     47509707 |     99206304 |     99206304 |     99206304 |     99206304 |    206799651 |    206799651 |    206799651 |    206799651 |    430363121 |    430363121 |    430363121 |    430363121 |
sim_elapsed_time                                 1 |            1 |           14 |            7 |            1 |            1 |           21 |           10 |            3 |            2 |           33 |           17 |            5 |            6 |           56 |           30 |           12 |           12 |          102 |           56 |           25 |           25 |          193 |          104 |           53 |           54 |          359 |          187 |          115 |          114 |          635 |          305 |          248 |          245 |          961 |          471 |          515 |          516 |         1333 |          825 |         1096 |         1096 |         2055 |         1577 |
sim_inst_rate                         1045927.0000 | 1045927.0000 |   74709.0714 |  149418.1429 | 2233596.0000 | 2233596.0000 |  106361.7143 |  223359.6000 | 1591181.0000 | 2386771.5000 |  144652.8182 |  280796.6471 | 2033691.2000 | 1694742.6667 |  181579.5714 |  338948.5333 | 1799900.6667 | 1799900.6667 |  211753.0196 |  385693.0000 | 1829597.3600 | 1829597.3600 |  236994.4767 |  439807.0577 | 1822242.3019 | 1788497.0741 |  269021.8440 |  516464.3957 | 1768167.3565 | 1783677.5965 |  320219.2850 |  666686.0525 | 1722210.0847 | 1743298.3714 |  444441.3122 |  906811.2548 | 1738102.7010 | 1734734.2849 |  671510.0458 | 1084997.4436 | 1708032.8412 | 1708032.8412 |  910950.8487 | 1187066.5783 |
il1.accesses                               1045927 |      1045927 |      1045927 |      1045927 |      2233596 |      2233596 |      2233596 |      2233596 |      4773543 |      4773543 |      4773543 |      4773543 |     10168456 |     10168456 |     10168456 |     10168456 |     21598808 |     21598808 |     21598808 |     21598808 |     45739934 |     45739934 |     45739934 |     45739934 |     96578842 |     96578842 |     96578842 |     96578842 |    203339246 |    203339246 |    203339246 |    203339246 |    427108101 |    427108101 |    427108101 |    427108101 |    895122891 |    895122891 |    895122891 |    895122891 |   1872003994 |   1872003994 |   1872003994 |   1872003994 |
il1.hits                                   1045442 |      1045442 |      1045494 |      1045494 |      2233110 |      2233110 |      2233162 |      2233162 |      4773050 |      4773050 |      4773108 |      4773108 |     10167961 |     10167961 |     10168019 |     10168019 |     21598314 |     21598314 |     21598372 |     21598372 |     45739439 |     45739439 |     45739497 |     45739497 |     96578348 |     96578348 |     96578406 |     96578406 |    203338752 |    203338752 |    203338810 |    203338810 |    427107606 |    427107606 |    427107664 |    427107664 |    895122397 |    895122397 |    895122455 |    895122455 |   1872003499 |   1872003499 |   1872003557 |   1872003557 |
il1.misses                                     485 |          485 |          433 |          433 |          486 |          486 |          434 |          434 |          493 |          493 |          435 |          435 |          495 |          495 |          437 |          437 |          494 |          494 |          436 |          436 |          495 |          495 |          437 |          437 |          494 |          494 |          436 |          436 |          494 |          494 |          436 |          436 |          495 |          495 |          437 |          437 |          494 |          494 |          436 |          436 |          495 |          495 |          437 |          437 |
il1.replacements                               260 |          260 |          177 |          177 |          260 |          260 |          178 |          178 |          266 |          266 |          179 |          179 |          267 |          267 |          181 |          181 |          266 |          266 |          180 |          180 |          267 |          267 |          181 |          181 |          266 |          266 |          180 |          180 |          266 |          266 |          180 |          180 |          267 |          267 |          181 |          181 |          266 |          266 |          180 |          180 |          267 |          267 |          181 |          181 |
il1.writebacks                                   0 |            0 |            0 |            0 |            0 |            0 |            0 |            0 |            0 |            0 |            0 |            0 |            0 |            0 |            0 |            0 |            0 |            0 |            0 |            0 |            0 |            0 |            0 |            0 |            0 |            0 |            0 |            0 |            0 |            0 |            0 |            0 |            0 |            0 |            0 |            0 |            0 |            0 |            0 |            0 |            0 |            0 |            0 |            0 |
il1.invalidations                                0 |            0 |            0 |            0 |            0 |            0 |            0 |            0 |            0 |            0 |            0 |            0 |            0 |            0 |            0 |            0 |            0 |            0 |            0 |            0 |            0 |            0 |            0 |            0 |            0 |            0 |            0 |            0 |            0 |            0 |            0 |            0 |            0 |            0 |            0 |            0 |            0 |            0 |            0 |            0 |            0 |            0 |            0 |            0 |
il1.miss_rate                               0.0005 |       0.0005 |       0.0004 |       0.0004 |       0.0002 |       0.0002 |       0.0002 |       0.0002 |       0.0001 |       0.0001 |       0.0001 |       0.0001 |       0.0000 |       0.0000 |       0.0000 |       0.0000 |       0.0000 |       0.0000 |       0.0000 |       0.0000 |       0.0000 |       0.0000 |       0.0000 |       0.0000 |       0.0000 |       0.0000 |       0.0000 |       0.0000 |       0.0000 |       0.0000 |       0.0000 |       0.0000 |       0.0000 |       0.0000 |       0.0000 |       0.0000 |       0.0000 |       0.0000 |       0.0000 |       0.0000 |       0.0000 |       0.0000 |       0.0000 |       0.0000 |
il1.repl_rate                               0.0002 |       0.0002 |       0.0002 |       0.0002 |       0.0001 |       0.0001 |       0.0001 |       0.0001 |       0.0001 |       0.0001 |       0.0000 |       0.0000 |       0.0000 |       0.0000 |       0.0000 |       0.0000 |       0.0000 |       0.0000 |       0.0000 |       0.0000 |       0.0000 |       0.0000 |       0.0000 |       0.0000 |       0.0000 |       0.0000 |       0.0000 |       0.0000 |       0.0000 |       0.0000 |       0.0000 |       0.0000 |       0.0000 |       0.0000 |       0.0000 |       0.0000 |       0.0000 |       0.0000 |       0.0000 |       0.0000 |       0.0000 |       0.0000 |       0.0000 |       0.0000 |
il1.wb_rate                                 0.0000 |       0.0000 |       0.0000 |       0.0000 |       0.0000 |       0.0000 |       0.0000 |       0.0000 |       0.0000 |       0.0000 |       0.0000 |       0.0000 |       0.0000 |       0.0000 |       0.0000 |       0.0000 |       0.0000 |       0.0000 |       0.0000 |       0.0000 |       0.0000 |       0.0000 |       0.0000 |       0.0000 |       0.0000 |       0.0000 |       0.0000 |       0.0000 |       0.0000 |       0.0000 |       0.0000 |       0.0000 |       0.0000 |       0.0000 |       0.0000 |       0.0000 |       0.0000 |       0.0000 |       0.0000 |       0.0000 |       0.0000 |       0.0000 |       0.0000 |       0.0000 |
il1.inv_rate                                0.0000 |       0.0000 |       0.0000 |       0.0000 |       0.0000 |       0.0000 |       0.0000 |       0.0000 |       0.0000 |       0.0000 |       0.0000 |       0.0000 |       0.0000 |       0.0000 |       0.0000 |       0.0000 |       0.0000 |       0.0000 |       0.0000 |       0.0000 |       0.0000 |       0.0000 |       0.0000 |       0.0000 |       0.0000 |       0.0000 |       0.0000 |       0.0000 |       0.0000 |       0.0000 |       0.0000 |       0.0000 |       0.0000 |       0.0000 |       0.0000 |       0.0000 |       0.0000 |       0.0000 |       0.0000 |       0.0000 |       0.0000 |       0.0000 |       0.0000 |       0.0000 |
dl1.accesses                                264382 |       264382 |       264382 |       264382 |       553319 |       553319 |       553319 |       553319 |      1164792 |      1164792 |      1164792 |      1164792 |      2452593 |      2452593 |      2452593 |      2452593 |      5159359 |      5159359 |      5159359 |      5159359 |     10835723 |     10835723 |     10835723 |     10835723 |     22712950 |     22712950 |     22712950 |     22712950 |     47509777 |     47509777 |     47509777 |     47509777 |     99206374 |     99206374 |     99206374 |     99206374 |    206799721 |    206799721 |    206799721 |    206799721 |    430363191 |    430363191 |    430363191 |    430363191 |
dl1.hits                                    259173 |       259173 |       259349 |       259349 |       531553 |       531553 |       533484 |       533484 |      1095851 |      1095851 |      1101495 |      1101495 |      2262442 |      2262442 |      2276367 |      2276367 |      4672910 |      4672910 |      4705176 |      4705176 |      9655533 |      9655533 |      9730615 |      9730615 |     19943518 |     19943518 |     20108365 |     20108365 |     41173044 |     41173044 |     41535155 |     41535155 |     84962888 |     84962888 |     85731629 |     85731629 |    175223592 |    175223592 |    176861188 |    176861188 |    361121280 |    361121280 |    364569254 |    364569254 |
dl1.misses                                    5209 |         5209 |         5033 |         5033 |        21766 |        21766 |        19835 |        19835 |        68941 |        68941 |        63297 |        63297 |       190151 |       190151 |       176226 |       176226 |       486449 |       486449 |       454183 |       454183 |      1180190 |      1180190 |      1105108 |      1105108 |      2769432 |      2769432 |      2604585 |      2604585 |      6336733 |      6336733 |      5974622 |      5974622 |     14243486 |     14243486 |     13474745 |     13474745 |     31576129 |     31576129 |     29938533 |     29938533 |     69241911 |     69241911 |     65793937 |     65793937 |
dl1.replacements                              4953 |         4953 |         4777 |         4777 |        21510 |        21510 |        19579 |        19579 |        68685 |        68685 |        63041 |        63041 |       189895 |       189895 |       175970 |       175970 |       486193 |       486193 |       453927 |       453927 |      1179934 |      1179934 |      1104852 |      1104852 |      2769176 |      2769176 |      2604329 |      2604329 |      6336477 |      6336477 |      5974366 |      5974366 |     14243230 |     14243230 |     13474489 |     13474489 |     31575873 |     31575873 |     29938277 |     29938277 |     69241655 |     69241655 |     65793681 |     65793681 |
dl1.writebacks                                4294 |         4294 |         4189 |         4189 |        18283 |        18283 |        16639 |        16639 |        57545 |        57545 |        52474 |        52474 |       157635 |       157635 |       145003 |       145003 |       401028 |       401028 |       371633 |       371633 |       968699 |       968699 |       900952 |       900952 |      2265064 |      2265064 |      2117689 |      2117689 |      5167831 |      5167831 |      4849117 |      4849117 |     11588049 |     11588049 |     10916763 |     10916763 |     25636424 |     25636424 |     24221288 |     24221288 |     56128016 |     56128016 |     53175860 |     53175860 |
dl1.invalidations                                0 |            0 |            0 |            0 |            0 |            0 |            0 |            0 |            0 |            0 |            0 |            0 |            0 |            0 |            0 |            0 |            0 |            0 |            0 |            0 |            0 |            0 |            0 |            0 |            0 |            0 |            0 |            0 |            0 |            0 |            0 |            0 |            0 |            0 |            0 |            0 |            0 |            0 |            0 |            0 |            0 |            0 |            0 |            0 |
dl1.miss_rate                               0.0197 |       0.0197 |       0.0190 |       0.0190 |       0.0393 |       0.0393 |       0.0358 |       0.0358 |       0.0592 |       0.0592 |       0.0543 |       0.0543 |       0.0775 |       0.0775 |       0.0719 |       0.0719 |       0.0943 |       0.0943 |       0.0880 |       0.0880 |       0.1089 |       0.1089 |       0.1020 |       0.1020 |       0.1219 |       0.1219 |       0.1147 |       0.1147 |       0.1334 |       0.1334 |       0.1258 |       0.1258 |       0.1436 |       0.1436 |       0.1358 |       0.1358 |       0.1527 |       0.1527 |       0.1448 |       0.1448 |       0.1609 |       0.1609 |       0.1529 |       0.1529 |
dl1.repl_rate                               0.0187 |       0.0187 |       0.0181 |       0.0181 |       0.0389 |       0.0389 |       0.0354 |       0.0354 |       0.0590 |       0.0590 |       0.0541 |       0.0541 |       0.0774 |       0.0774 |       0.0717 |       0.0717 |       0.0942 |       0.0942 |       0.0880 |       0.0880 |       0.1089 |       0.1089 |       0.1020 |       0.1020 |       0.1219 |       0.1219 |       0.1147 |       0.1147 |       0.1334 |       0.1334 |       0.1258 |       0.1258 |       0.1436 |       0.1436 |       0.1358 |       0.1358 |       0.1527 |       0.1527 |       0.1448 |       0.1448 |       0.1609 |       0.1609 |       0.1529 |       0.1529 |
dl1.wb_rate                                 0.0162 |       0.0162 |       0.0158 |       0.0158 |       0.0330 |       0.0330 |       0.0301 |       0.0301 |       0.0494 |       0.0494 |       0.0451 |       0.0451 |       0.0643 |       0.0643 |       0.0591 |       0.0591 |       0.0777 |       0.0777 |       0.0720 |       0.0720 |       0.0894 |       0.0894 |       0.0831 |       0.0831 |       0.0997 |       0.0997 |       0.0932 |       0.0932 |       0.1088 |       0.1088 |       0.1021 |       0.1021 |       0.1168 |       0.1168 |       0.1100 |       0.1100 |       0.1240 |       0.1240 |       0.1171 |       0.1171 |       0.1304 |       0.1304 |       0.1236 |       0.1236 |
dl1.inv_rate                                0.0000 |       0.0000 |       0.0000 |       0.0000 |       0.0000 |       0.0000 |       0.0000 |       0.0000 |       0.0000 |       0.0000 |       0.0000 |       0.0000 |       0.0000 |       0.0000 |       0.0000 |       0.0000 |       0.0000 |       0.0000 |       0.0000 |       0.0000 |       0.0000 |       0.0000 |       0.0000 |       0.0000 |       0.0000 |       0.0000 |       0.0000 |       0.0000 |       0.0000 |       0.0000 |       0.0000 |       0.0000 |       0.0000 |       0.0000 |       0.0000 |       0.0000 |       0.0000 |       0.0000 |       0.0000 |       0.0000 |       0.0000 |       0.0000 |       0.0000 |       0.0000 |
dl2.accesses                                  9988 |         9988 |         9655 |         9655 |        40535 |        40535 |        36908 |        36908 |       126979 |       126979 |       116206 |       116206 |       348281 |       348281 |       321666 |       321666 |       887971 |       887971 |       826252 |       826252 |      2149384 |      2149384 |      2006497 |      2006497 |      5034990 |      5034990 |      4722710 |      4722710 |     11505058 |     11505058 |     10824175 |     10824175 |     25832030 |     25832030 |     24391945 |     24391945 |     57213047 |     57213047 |     54160257 |     54160257 |    125370422 |    125370422 |    118970234 |    118970234 |
dl2.hits                                      8615 |         8615 |         8298 |         8298 |        38649 |        38649 |        35038 |        35038 |       124066 |       124066 |       113311 |       113311 |       343317 |       343317 |       316721 |       316721 |       878913 |       878913 |       817212 |       817212 |      2132132 |      2132132 |      1989264 |      1989264 |      5001356 |      5001356 |      4689094 |      4689094 |     11438656 |     11438430 |     10757791 |     10756931 |     25699864 |     24712486 |     24258874 |     23196680 |     54974333 |     52031319 |     51772827 |     49176930 |    115010939 |    108527697 |    109003169 |    102916373 |
dl2.misses                                    1373 |         1373 |         1357 |         1357 |         1886 |         1886 |         1870 |         1870 |         2913 |         2913 |         2895 |         2895 |         4964 |         4964 |         4945 |         4945 |         9058 |         9058 |         9040 |         9040 |        17252 |        17252 |        17233 |        17233 |        33634 |        33634 |        33616 |        33616 |        66402 |        66628 |        66384 |        67244 |       132166 |      1119544 |       133071 |      1195265 |      2238714 |      5181728 |      2387430 |      4983327 |     10359483 |     16842725 |      9967065 |     16053861 |
dl2.replacements                               216 |          216 |            0 |            0 |          217 |          217 |            0 |            0 |          219 |          219 |            0 |            0 |          222 |          222 |            0 |            0 |          220 |          220 |            0 |            0 |          222 |          222 |            0 |            0 |          220 |          220 |            0 |            0 |          220 |         1092 |            0 |         1708 |         1094 |      1054008 |         1999 |      1129729 |      2107642 |      5116192 |      2256358 |      4917791 |     10228411 |     16777189 |      9835993 |     15988325 |
dl2.writebacks                                  18 |           18 |            0 |            0 |           19 |           19 |            0 |            0 |           21 |           21 |            0 |            0 |           23 |           23 |            0 |            0 |           22 |           22 |            0 |            0 |           23 |           23 |            0 |            0 |           22 |           22 |            0 |            0 |           22 |          770 |            0 |         1502 |          771 |       905870 |         1793 |       978379 |      1812112 |      4348688 |      1954085 |      4150011 |      8694099 |     14103324 |      8301698 |     13292350 |
dl2.invalidations                                0 |            0 |            0 |            0 |            0 |            0 |            0 |            0 |            0 |            0 |            0 |            0 |            0 |            0 |            0 |            0 |            0 |            0 |            0 |            0 |            0 |            0 |            0 |            0 |            0 |            0 |            0 |            0 |            0 |            0 |            0 |            0 |            0 |            0 |            0 |            0 |            0 |            0 |            0 |            0 |            0 |            0 |            0 |            0 |
dl2.miss_rate                               0.1375 |       0.1375 |       0.1405 |       0.1405 |       0.0465 |       0.0465 |       0.0507 |       0.0507 |       0.0229 |       0.0229 |       0.0249 |       0.0249 |       0.0143 |       0.0143 |       0.0154 |       0.0154 |       0.0102 |       0.0102 |       0.0109 |       0.0109 |       0.0080 |       0.0080 |       0.0086 |       0.0086 |       0.0067 |       0.0067 |       0.0071 |       0.0071 |       0.0058 |       0.0058 |       0.0061 |       0.0062 |       0.0051 |       0.0433 |       0.0055 |       0.0490 |       0.0391 |       0.0906 |       0.0441 |       0.0920 |       0.0826 |       0.1343 |       0.0838 |       0.1349 |
dl2.repl_rate                               0.0216 |       0.0216 |       0.0000 |       0.0000 |       0.0054 |       0.0054 |       0.0000 |       0.0000 |       0.0017 |       0.0017 |       0.0000 |       0.0000 |       0.0006 |       0.0006 |       0.0000 |       0.0000 |       0.0002 |       0.0002 |       0.0000 |       0.0000 |       0.0001 |       0.0001 |       0.0000 |       0.0000 |       0.0000 |       0.0000 |       0.0000 |       0.0000 |       0.0000 |       0.0001 |       0.0000 |       0.0002 |       0.0000 |       0.0408 |       0.0001 |       0.0463 |       0.0368 |       0.0894 |       0.0417 |       0.0908 |       0.0816 |       0.1338 |       0.0827 |       0.1344 |
dl2.wb_rate                                 0.0018 |       0.0018 |       0.0000 |       0.0000 |       0.0005 |       0.0005 |       0.0000 |       0.0000 |       0.0002 |       0.0002 |       0.0000 |       0.0000 |       0.0001 |       0.0001 |       0.0000 |       0.0000 |       0.0000 |       0.0000 |       0.0000 |       0.0000 |       0.0000 |       0.0000 |       0.0000 |       0.0000 |       0.0000 |       0.0000 |       0.0000 |       0.0000 |       0.0000 |       0.0001 |       0.0000 |       0.0001 |       0.0000 |       0.0351 |       0.0001 |       0.0401 |       0.0317 |       0.0760 |       0.0361 |       0.0766 |       0.0693 |       0.1125 |       0.0698 |       0.1117 |
dl2.inv_rate                                0.0000 |       0.0000 |       0.0000 |       0.0000 |       0.0000 |       0.0000 |       0.0000 |       0.0000 |       0.0000 |       0.0000 |       0.0000 |       0.0000 |       0.0000 |       0.0000 |       0.0000 |       0.0000 |       0.0000 |       0.0000 |       0.0000 |       0.0000 |       0.0000 |       0.0000 |       0.0000 |       0.0000 |       0.0000 |       0.0000 |       0.0000 |       0.0000 |       0.0000 |       0.0000 |       0.0000 |       0.0000 |       0.0000 |       0.0000 |       0.0000 |       0.0000 |       0.0000 |       0.0000 |       0.0000 |       0.0000 |       0.0000 |       0.0000 |       0.0000 |       0.0000 |
itlb.accesses                              1045927 |      1045927 |      1045927 |      1045927 |      2233596 |      2233596 |      2233596 |      2233596 |      4773543 |      4773543 |      4773543 |      4773543 |     10168456 |     10168456 |     10168456 |     10168456 |     21598808 |     21598808 |     21598808 |     21598808 |     45739934 |     45739934 |     45739934 |     45739934 |     96578842 |     96578842 |     96578842 |     96578842 |    203339246 |    203339246 |    203339246 |    203339246 |    427108101 |    427108101 |    427108101 |    427108101 |    895122891 |    895122891 |    895122891 |    895122891 |   1872003994 |   1872003994 |   1872003994 |   1872003994 |
itlb.hits                                  1045919 |      1045919 |      1045919 |      1045919 |      2233588 |      2233588 |      2233588 |      2233588 |      4773535 |      4773535 |      4773535 |      4773535 |     10168448 |     10168448 |     10168448 |     10168448 |     21598800 |     21598800 |     21598800 |     21598800 |     45739926 |     45739926 |     45739926 |     45739926 |     96578834 |     96578834 |     96578834 |     96578834 |    203339238 |    203339238 |    203339238 |    203339238 |    427108093 |    427108093 |    427108093 |    427108093 |    895122883 |    895122883 |    895122883 |    895122883 |   1872003986 |   1872003986 |   1872003986 |   1872003986 |
itlb.misses                                      8 |            8 |            8 |            8 |            8 |            8 |            8 |            8 |            8 |            8 |            8 |            8 |            8 |            8 |            8 |            8 |            8 |            8 |            8 |            8 |            8 |            8 |            8 |            8 |            8 |            8 |            8 |            8 |            8 |            8 |            8 |            8 |            8 |            8 |            8 |            8 |            8 |            8 |            8 |            8 |            8 |            8 |            8 |            8 |
itlb.replacements                                0 |            0 |            0 |            0 |            0 |            0 |            0 |            0 |            0 |            0 |            0 |            0 |            0 |            0 |            0 |            0 |            0 |            0 |            0 |            0 |            0 |            0 |            0 |            0 |            0 |            0 |            0 |            0 |            0 |            0 |            0 |            0 |            0 |            0 |            0 |            0 |            0 |            0 |            0 |            0 |            0 |            0 |            0 |            0 |
itlb.writebacks                                  0 |            0 |            0 |            0 |            0 |            0 |            0 |            0 |            0 |            0 |            0 |            0 |            0 |            0 |            0 |            0 |            0 |            0 |            0 |            0 |            0 |            0 |            0 |            0 |            0 |            0 |            0 |            0 |            0 |            0 |            0 |            0 |            0 |            0 |            0 |            0 |            0 |            0 |            0 |            0 |            0 |            0 |            0 |            0 |
itlb.invalidations                               0 |            0 |            0 |            0 |            0 |            0 |            0 |            0 |            0 |            0 |            0 |            0 |            0 |            0 |            0 |            0 |            0 |            0 |            0 |            0 |            0 |            0 |            0 |            0 |            0 |            0 |            0 |            0 |            0 |            0 |            0 |            0 |            0 |            0 |            0 |            0 |            0 |            0 |            0 |            0 |            0 |            0 |            0 |            0 |
itlb.miss_rate                              0.0000 |       0.0000 |       0.0000 |       0.0000 |       0.0000 |       0.0000 |       0.0000 |       0.0000 |       0.0000 |       0.0000 |       0.0000 |       0.0000 |       0.0000 |       0.0000 |       0.0000 |       0.0000 |       0.0000 |       0.0000 |       0.0000 |       0.0000 |       0.0000 |       0.0000 |       0.0000 |       0.0000 |       0.0000 |       0.0000 |       0.0000 |       0.0000 |       0.0000 |       0.0000 |       0.0000 |       0.0000 |       0.0000 |       0.0000 |       0.0000 |       0.0000 |       0.0000 |       0.0000 |       0.0000 |       0.0000 |       0.0000 |       0.0000 |       0.0000 |       0.0000 |
itlb.repl_rate                              0.0000 |       0.0000 |       0.0000 |       0.0000 |       0.0000 |       0.0000 |       0.0000 |       0.0000 |       0.0000 |       0.0000 |       0.0000 |       0.0000 |       0.0000 |       0.0000 |       0.0000 |       0.0000 |       0.0000 |       0.0000 |       0.0000 |       0.0000 |       0.0000 |       0.0000 |       0.0000 |       0.0000 |       0.0000 |       0.0000 |       0.0000 |       0.0000 |       0.0000 |       0.0000 |       0.0000 |       0.0000 |       0.0000 |       0.0000 |       0.0000 |       0.0000 |       0.0000 |       0.0000 |       0.0000 |       0.0000 |       0.0000 |       0.0000 |       0.0000 |       0.0000 |
itlb.wb_rate                                0.0000 |       0.0000 |       0.0000 |       0.0000 |       0.0000 |       0.0000 |       0.0000 |       0.0000 |       0.0000 |       0.0000 |       0.0000 |       0.0000 |       0.0000 |       0.0000 |       0.0000 |       0.0000 |       0.0000 |       0.0000 |       0.0000 |       0.0000 |       0.0000 |       0.0000 |       0.0000 |       0.0000 |       0.0000 |       0.0000 |       0.0000 |       0.0000 |       0.0000 |       0.0000 |       0.0000 |       0.0000 |       0.0000 |       0.0000 |       0.0000 |       0.0000 |       0.0000 |       0.0000 |       0.0000 |       0.0000 |       0.0000 |       0.0000 |       0.0000 |       0.0000 |
itlb.inv_rate                               0.0000 |       0.0000 |       0.0000 |       0.0000 |       0.0000 |       0.0000 |       0.0000 |       0.0000 |       0.0000 |       0.0000 |       0.0000 |       0.0000 |       0.0000 |       0.0000 |       0.0000 |       0.0000 |       0.0000 |       0.0000 |       0.0000 |       0.0000 |       0.0000 |       0.0000 |       0.0000 |       0.0000 |       0.0000 |       0.0000 |       0.0000 |       0.0000 |       0.0000 |       0.0000 |       0.0000 |       0.0000 |       0.0000 |       0.0000 |       0.0000 |       0.0000 |       0.0000 |       0.0000 |       0.0000 |       0.0000 |       0.0000 |       0.0000 |       0.0000 |       0.0000 |
dtlb.accesses                               264382 |       264382 |       264382 |       264382 |       553319 |       553319 |       553319 |       553319 |      1164792 |      1164792 |      1164792 |      1164792 |      2452593 |      2452593 |      2452593 |      2452593 |      5159359 |      5159359 |      5159359 |      5159359 |     10835723 |     10835723 |     10835723 |     10835723 |     22712950 |     22712950 |     22712950 |     22712950 |     47509777 |     47509777 |     47509777 |     47509777 |     99206374 |     99206374 |     99206374 |     99206374 |    206799721 |    206799721 |    206799721 |    206799721 |    430363191 |    430363191 |    430363191 |    430363191 |
dtlb.hits                                   264372 |       264372 |       264372 |       264372 |       553305 |       553305 |       553305 |       553305 |      1164770 |      1164770 |      1164770 |      1164770 |      2452555 |      2452555 |      2452555 |      2452555 |      5159289 |      5159289 |      5159289 |      5159289 |     10835562 |     10835562 |     10835562 |     10835562 |     22606273 |     22606273 |     22606273 |     22606273 |     46809737 |     46809737 |     46809737 |     46809737 |     96605462 |     96605462 |     96605462 |     96605462 |    199035000 |    199035000 |    199035000 |    199035000 |    409650042 |    409650042 |    409650042 |    409650042 |
dtlb.misses                                     10 |           10 |           10 |           10 |           14 |           14 |           14 |           14 |           22 |           22 |           22 |           22 |           38 |           38 |           38 |           38 |           70 |           70 |           70 |           70 |          161 |          161 |          161 |          161 |       106677 |       106677 |       106677 |       106677 |       700040 |       700040 |       700040 |       700040 |      2600912 |      2600912 |      2600912 |      2600912 |      7764721 |      7764721 |      7764721 |      7764721 |     20713149 |     20713149 |     20713149 |     20713149 |
dtlb.replacements                                0 |            0 |            0 |            0 |            0 |            0 |            0 |            0 |            0 |            0 |            0 |            0 |            0 |            0 |            0 |            0 |            0 |            0 |            0 |            0 |           33 |           33 |           33 |           33 |       106549 |       106549 |       106549 |       106549 |       699912 |       699912 |       699912 |       699912 |      2600784 |      2600784 |      2600784 |      2600784 |      7764593 |      7764593 |      7764593 |      7764593 |     20713021 |     20713021 |     20713021 |     20713021 |
dtlb.writebacks                                  0 |            0 |            0 |            0 |            0 |            0 |            0 |            0 |            0 |            0 |            0 |            0 |            0 |            0 |            0 |            0 |            0 |            0 |            0 |            0 |           31 |           31 |           31 |           31 |        99791 |        99791 |        99791 |        99791 |       663341 |       663341 |       663341 |       663341 |      2490292 |      2490292 |      2490292 |      2490292 |      7492424 |      7492424 |      7492424 |      7492424 |     20107641 |     20107641 |     20107641 |     20107641 |
dtlb.invalidations                               0 |            0 |            0 |            0 |            0 |            0 |            0 |            0 |            0 |            0 |            0 |            0 |            0 |            0 |            0 |            0 |            0 |            0 |            0 |            0 |            0 |            0 |            0 |            0 |            0 |            0 |            0 |            0 |            0 |            0 |            0 |            0 |            0 |            0 |            0 |            0 |            0 |            0 |            0 |            0 |            0 |            0 |            0 |            0 |
dtlb.miss_rate                              0.0000 |       0.0000 |       0.0000 |       0.0000 |       0.0000 |       0.0000 |       0.0000 |       0.0000 |       0.0000 |       0.0000 |       0.0000 |       0.0000 |       0.0000 |       0.0000 |       0.0000 |       0.0000 |       0.0000 |       0.0000 |       0.0000 |       0.0000 |       0.0000 |       0.0000 |       0.0000 |       0.0000 |       0.0047 |       0.0047 |       0.0047 |       0.0047 |       0.0147 |       0.0147 |       0.0147 |       0.0147 |       0.0262 |       0.0262 |       0.0262 |       0.0262 |       0.0375 |       0.0375 |       0.0375 |       0.0375 |       0.0481 |       0.0481 |       0.0481 |       0.0481 |
dtlb.repl_rate                              0.0000 |       0.0000 |       0.0000 |       0.0000 |       0.0000 |       0.0000 |       0.0000 |       0.0000 |       0.0000 |       0.0000 |       0.0000 |       0.0000 |       0.0000 |       0.0000 |       0.0000 |       0.0000 |       0.0000 |       0.0000 |       0.0000 |       0.0000 |       0.0000 |       0.0000 |       0.0000 |       0.0000 |       0.0047 |       0.0047 |       0.0047 |       0.0047 |       0.0147 |       0.0147 |       0.0147 |       0.0147 |       0.0262 |       0.0262 |       0.0262 |       0.0262 |       0.0375 |       0.0375 |       0.0375 |       0.0375 |       0.0481 |       0.0481 |       0.0481 |       0.0481 |
dtlb.wb_rate                                0.0000 |       0.0000 |       0.0000 |       0.0000 |       0.0000 |       0.0000 |       0.0000 |       0.0000 |       0.0000 |       0.0000 |       0.0000 |       0.0000 |       0.0000 |       0.0000 |       0.0000 |       0.0000 |       0.0000 |       0.0000 |       0.0000 |       0.0000 |       0.0000 |       0.0000 |       0.0000 |       0.0000 |       0.0044 |       0.0044 |       0.0044 |       0.0044 |       0.0140 |       0.0140 |       0.0140 |       0.0140 |       0.0251 |       0.0251 |       0.0251 |       0.0251 |       0.0362 |       0.0362 |       0.0362 |       0.0362 |       0.0467 |       0.0467 |       0.0467 |       0.0467 |
dtlb.inv_rate                               0.0000 |       0.0000 |       0.0000 |       0.0000 |       0.0000 |       0.0000 |       0.0000 |       0.0000 |       0.0000 |       0.0000 |       0.0000 |       0.0000 |       0.0000 |       0.0000 |       0.0000 |       0.0000 |       0.0000 |       0.0000 |       0.0000 |       0.0000 |       0.0000 |       0.0000 |       0.0000 |       0.0000 |       0.0000 |       0.0000 |       0.0000 |       0.0000 |       0.0000 |       0.0000 |       0.0000 |       0.0000 |       0.0000 |       0.0000 |       0.0000 |       0.0000 |       0.0000 |       0.0000 |       0.0000 |       0.0000 |       0.0000 |       0.0000 |       0.0000 |       0.0000 |
ld_text_base                            0x00400000 |   0x00400000 |   0x00400000 |   0x00400000 |   0x00400000 |   0x00400000 |   0x00400000 |   0x00400000 |   0x00400000 |   0x00400000 |   0x00400000 |   0x00400000 |   0x00400000 |   0x00400000 |   0x00400000 |   0x00400000 |   0x00400000 |   0x00400000 |   0x00400000 |   0x00400000 |   0x00400000 |   0x00400000 |   0x00400000 |   0x00400000 |   0x00400000 |   0x00400000 |   0x00400000 |   0x00400000 |   0x00400000 |   0x00400000 |   0x00400000 |   0x00400000 |   0x00400000 |   0x00400000 |   0x00400000 |   0x00400000 |   0x00400000 |   0x00400000 |   0x00400000 |   0x00400000 |   0x00400000 |   0x00400000 |   0x00400000 |   0x00400000 |
ld_text_size                                 29808 |        29808 |        29808 |        29808 |        29840 |        29840 |        29840 |        29840 |        29856 |        29856 |        29856 |        29856 |        29888 |        29888 |        29888 |        29888 |        29888 |        29888 |        29888 |        29888 |        29888 |        29888 |        29888 |        29888 |        29888 |        29888 |        29888 |        29888 |        29888 |        29888 |        29888 |        29888 |        29888 |        29888 |        29888 |        29888 |        29888 |        29888 |        29888 |        29888 |        29888 |        29888 |        29888 |        29888 |
ld_data_base                            0x10000000 |   0x10000000 |   0x10000000 |   0x10000000 |   0x10000000 |   0x10000000 |   0x10000000 |   0x10000000 |   0x10000000 |   0x10000000 |   0x10000000 |   0x10000000 |   0x10000000 |   0x10000000 |   0x10000000 |   0x10000000 |   0x10000000 |   0x10000000 |   0x10000000 |   0x10000000 |   0x10000000 |   0x10000000 |   0x10000000 |   0x10000000 |   0x10000000 |   0x10000000 |   0x10000000 |   0x10000000 |   0x10000000 |   0x10000000 |   0x10000000 |   0x10000000 |   0x10000000 |   0x10000000 |   0x10000000 |   0x10000000 |   0x10000000 |   0x10000000 |   0x10000000 |   0x10000000 |   0x10000000 |   0x10000000 |   0x10000000 |   0x10000000 |
ld_data_size                                  4096 |         4096 |         4096 |         4096 |         4096 |         4096 |         4096 |         4096 |         4096 |         4096 |         4096 |         4096 |         4096 |         4096 |         4096 |         4096 |         4096 |         4096 |         4096 |         4096 |         4096 |         4096 |         4096 |         4096 |         4096 |         4096 |         4096 |         4096 |         4096 |         4096 |         4096 |         4096 |         4096 |         4096 |         4096 |         4096 |         4096 |         4096 |         4096 |         4096 |         4096 |         4096 |         4096 |         4096 |
ld_stack_base                           0x7fffc000 |   0x7fffc000 |   0x7fffc000 |   0x7fffc000 |   0x7fffc000 |   0x7fffc000 |   0x7fffc000 |   0x7fffc000 |   0x7fffc000 |   0x7fffc000 |   0x7fffc000 |   0x7fffc000 |   0x7fffc000 |   0x7fffc000 |   0x7fffc000 |   0x7fffc000 |   0x7fffc000 |   0x7fffc000 |   0x7fffc000 |   0x7fffc000 |   0x7fffc000 |   0x7fffc000 |   0x7fffc000 |   0x7fffc000 |   0x7fffc000 |   0x7fffc000 |   0x7fffc000 |   0x7fffc000 |   0x7fffc000 |   0x7fffc000 |   0x7fffc000 |   0x7fffc000 |   0x7fffc000 |   0x7fffc000 |   0x7fffc000 |   0x7fffc000 |   0x7fffc000 |   0x7fffc000 |   0x7fffc000 |   0x7fffc000 |   0x7fffc000 |   0x7fffc000 |   0x7fffc000 |   0x7fffc000 |
ld_stack_size                                16384 |        16384 |        16384 |        16384 |        16384 |        16384 |        16384 |        16384 |        16384 |        16384 |        16384 |        16384 |        16384 |        16384 |        16384 |        16384 |        16384 |        16384 |        16384 |        16384 |        16384 |        16384 |        16384 |        16384 |        16384 |        16384 |        16384 |        16384 |        16384 |        16384 |        16384 |        16384 |        16384 |        16384 |        16384 |        16384 |        16384 |        16384 |        16384 |        16384 |        16384 |        16384 |        16384 |        16384 |
ld_prog_entry                           0x00400140 |   0x00400140 |   0x00400140 |   0x00400140 |   0x00400140 |   0x00400140 |   0x00400140 |   0x00400140 |   0x00400140 |   0x00400140 |   0x00400140 |   0x00400140 |   0x00400140 |   0x00400140 |   0x00400140 |   0x00400140 |   0x00400140 |   0x00400140 |   0x00400140 |   0x00400140 |   0x00400140 |   0x00400140 |   0x00400140 |   0x00400140 |   0x00400140 |   0x00400140 |   0x00400140 |   0x00400140 |   0x00400140 |   0x00400140 |   0x00400140 |   0x00400140 |   0x00400140 |   0x00400140 |   0x00400140 |   0x00400140 |   0x00400140 |   0x00400140 |   0x00400140 |   0x00400140 |   0x00400140 |   0x00400140 |   0x00400140 |   0x00400140 |
ld_environ_base                         0x7fff8000 |   0x7fff8000 |   0x7fff8000 |   0x7fff8000 |   0x7fff8000 |   0x7fff8000 |   0x7fff8000 |   0x7fff8000 |   0x7fff8000 |   0x7fff8000 |   0x7fff8000 |   0x7fff8000 |   0x7fff8000 |   0x7fff8000 |   0x7fff8000 |   0x7fff8000 |   0x7fff8000 |   0x7fff8000 |   0x7fff8000 |   0x7fff8000 |   0x7fff8000 |   0x7fff8000 |   0x7fff8000 |   0x7fff8000 |   0x7fff8000 |   0x7fff8000 |   0x7fff8000 |   0x7fff8000 |   0x7fff8000 |   0x7fff8000 |   0x7fff8000 |   0x7fff8000 |   0x7fff8000 |   0x7fff8000 |   0x7fff8000 |   0x7fff8000 |   0x7fff8000 |   0x7fff8000 |   0x7fff8000 |   0x7fff8000 |   0x7fff8000 |   0x7fff8000 |   0x7fff8000 |   0x7fff8000 |
ld_target_big_endian                             0 |            0 |            0 |            0 |            0 |            0 |            0 |            0 |            0 |            0 |            0 |            0 |            0 |            0 |            0 |            0 |            0 |            0 |            0 |            0 |            0 |            0 |            0 |            0 |            0 |            0 |            0 |            0 |            0 |            0 |            0 |            0 |            0 |            0 |            0 |            0 |            0 |            0 |            0 |            0 |            0 |            0 |            0 |            0 |
mem.page_count                                  18 |           18 |           18 |           18 |           22 |           22 |           22 |           22 |           30 |           30 |           30 |           30 |           46 |           46 |           46 |           46 |           78 |           78 |           78 |           78 |          142 |          142 |          142 |          142 |          270 |          270 |          270 |          270 |          526 |          526 |          526 |          526 |         1038 |         1038 |         1038 |         1038 |         2062 |         2062 |         2062 |         2062 |         4110 |         4110 |         4110 |         4110 |
mem.page_mem                                   72k |          72k |          72k |          72k |          88k |          88k |          88k |          88k |         120k |         120k |         120k |         120k |         184k |         184k |         184k |         184k |         312k |         312k |         312k |         312k |         568k |         568k |         568k |         568k |        1080k |        1080k |        1080k |        1080k |        2104k |        2104k |        2104k |        2104k |        4152k |        4152k |        4152k |        4152k |        8248k |        8248k |        8248k |        8248k |       16440k |       16440k |       16440k |       16440k |
mem.ptab_misses                                 18 |           18 |           18 |           18 |           22 |           22 |           22 |           22 |           30 |           30 |           30 |           30 |           46 |           46 |           46 |           46 |           78 |           78 |           78 |           78 |          142 |          142 |          142 |          142 |          270 |          270 |          270 |          270 |          526 |          526 |          526 |          526 |         1038 |         1038 |         1038 |         1038 |         2062 |         2062 |         2062 |         2062 |         4110 |         4110 |         4110 |         4110 |
mem.ptab_accesses                          4896532 |      4896532 |      4896532 |      4896532 |     10225274 |     10225274 |     10225274 |     10225274 |     21608104 |     21608104 |     21608104 |     21608104 |     45763550 |     45763550 |     45763550 |     45763550 |     96898490 |     96898490 |     96898490 |     96898490 |    204815722 |    204815722 |    204815722 |    204815722 |    431925808 |    431925808 |    431925808 |    431925808 |    908561078 |    908561078 |    908561078 |    908561078 |   1907029692 |   1907029692 |   1907029692 |   1907029692 |   3994275546 |   3994275546 |   3994275546 |   3994275546 |   8348926898 |   8348926898 |   8348926898 |   8348926898 |
mem.ptab_miss_rate                          0.0000 |       0.0000 |       0.0000 |       0.0000 |       0.0000 |       0.0000 |       0.0000 |       0.0000 |       0.0000 |       0.0000 |       0.0000 |       0.0000 |       0.0000 |       0.0000 |       0.0000 |       0.0000 |       0.0000 |       0.0000 |       0.0000 |       0.0000 |       0.0000 |       0.0000 |       0.0000 |       0.0000 |       0.0000 |       0.0000 |       0.0000 |       0.0000 |       0.0000 |       0.0000 |       0.0000 |       0.0000 |       0.0000 |       0.0000 |       0.0000 |       0.0000 |       0.0000 |       0.0000 |       0.0000 |       0.0000 |       0.0000 |       0.0000 |       0.0000 |       0.0000 |
-------------------------------------------------------------------------------------------------
sim-bpred                                     4096 |         4096 |         4096 |         4096 |         4096 |         4096 |         4096 |         8192 |         8192 |         8192 |         8192 |         8192 |         8192 |         8192 |        16384 |        16384 |        16384 |        16384 |        16384 |        16384 |        16384 |        32768 |        32768 |        32768 |        32768 |        32768 |        32768 |        32768 |        65536 |        65536 |        65536 |        65536 |        65536 |        65536 |        65536 |       131072 |       131072 |       131072 |       131072 |       131072 |       131072 |       131072 |       262144 |       262144 |       262144 |       262144 |       262144 |       262144 |       262144 |       524288 |       524288 |       524288 |       524288 |       524288 |       524288 |       524288 |      1048576 |      1048576 |      1048576 |      1048576 |      1048576 |      1048576 |      1048576 |      2097152 |      2097152 |      2097152 |      2097152 |      2097152 |      2097152 |      2097152 |      4194304 |      4194304 |      4194304 |      4194304 |      4194304 |      4194304 |      4194304 |
-bpred bimod -bpred:bimod 512
-bpred bimod -bpred:bimod 1024
-bpred bimod -bpred:bimod 2048
-bpred 2lev -bpred:2lev 1 512 10 1
-bpred 2lev -bpred:2lev 1 1024 10 1
-bpred 2lev -bpred:2lev 1 2048 10 1
-bpred 2lev -bpred:2lev 1 4096 10 1
-------------------------------------------------------------------------------------------------
sim_num_insn                               1045927 |      1045927 |      1045927 |      1045927 |      1045927 |      1045927 |      1045927 |      2233596 |      2233596 |      2233596 |      2233596 |      2233596 |      2233596 |      2233596 |      4773543 |      4773543 |      4773543 |      4773543 |      4773543 |      4773543 |      4773543 |     10168456 |     10168456 |     10168456 |     10168456 |     10168456 |     10168456 |     10168456 |     21598808 |     21598808 |     21598808 |     21598808 |     21598808 |     21598808 |     21598808 |     45739934 |     45739934 |     45739934 |     45739934 |     45739934 |     45739934 |     45739934 |     96578842 |     96578842 |     96578842 |     96578842 |     96578842 |     96578842 |     96578842 |    203339246 |    203339246 |    203339246 |    203339246 |    203339246 |    203339246 |    203339246 |    427108101 |    427108101 |    427108101 |    427108101 |    427108101 |    427108101 |    427108101 |    895122891 |    895122891 |    895122891 |    895122891 |    895122891 |    895122891 |    895122891 |   1872003994 |   1872003994 |   1872003994 |   1872003994 |   1872003994 |   1872003994 |   1872003994 |
sim_num_refs                                264312 |       264312 |       264312 |       264312 |       264312 |       264312 |       264312 |       553249 |       553249 |       553249 |       553249 |       553249 |       553249 |       553249 |      1164722 |      1164722 |      1164722 |      1164722 |      1164722 |      1164722 |      1164722 |      2452523 |      2452523 |      2452523 |      2452523 |      2452523 |      2452523 |      2452523 |      5159289 |      5159289 |      5159289 |      5159289 |      5159289 |      5159289 |      5159289 |     10835653 |     10835653 |     10835653 |     10835653 |     10835653 |     10835653 |     10835653 |     22712880 |     22712880 |     22712880 |     22712880 |     22712880 |     22712880 |     22712880 |     47509707 |     47509707 |     47509707 |     47509707 |     47509707 |     47509707 |     47509707 |     99206304 |     99206304 |     99206304 |     99206304 |     99206304 |     99206304 |     99206304 |    206799651 |    206799651 |    206799651 |    206799651 |    206799651 |    206799651 |    206799651 |    430363121 |    430363121 |    430363121 |    430363121 |    430363121 |    430363121 |    430363121 |
sim_elapsed_time                                 1 |            1 |            1 |            1 |            1 |            1 |            1 |            1 |            1 |            1 |            1 |            1 |            1 |            1 |            1 |            1 |            1 |            1 |            1 |            2 |            1 |            2 |            3 |            2 |            3 |            2 |            2 |            3 |            5 |            5 |            5 |            5 |            5 |            5 |            5 |           11 |           10 |           11 |           11 |           11 |           11 |           11 |           23 |           22 |           23 |           23 |           23 |           23 |           23 |           47 |           48 |           48 |           49 |           49 |           48 |           49 |          101 |          102 |          100 |          103 |          104 |          103 |          103 |          213 |          213 |          214 |          217 |          218 |          217 |          217 |          450 |          449 |          448 |          458 |          458 |          457 |          457 |
sim_inst_rate                         1045927.0000 | 1045927.0000 | 1045927.0000 | 1045927.0000 | 1045927.0000 | 1045927.0000 | 1045927.0000 | 2233596.0000 | 2233596.0000 | 2233596.0000 | 2233596.0000 | 2233596.0000 | 2233596.0000 | 2233596.0000 | 4773543.0000 | 4773543.0000 | 4773543.0000 | 4773543.0000 | 4773543.0000 | 2386771.5000 | 4773543.0000 | 5084228.0000 | 3389485.3333 | 5084228.0000 | 3389485.3333 | 5084228.0000 | 5084228.0000 | 3389485.3333 | 4319761.6000 | 4319761.6000 | 4319761.6000 | 4319761.6000 | 4319761.6000 | 4319761.6000 | 4319761.6000 | 4158175.8182 | 4573993.4000 | 4158175.8182 | 4158175.8182 | 4158175.8182 | 4158175.8182 | 4158175.8182 | 4199080.0870 | 4389947.3636 | 4199080.0870 | 4199080.0870 | 4199080.0870 | 4199080.0870 | 4199080.0870 | 4326366.9362 | 4236234.2917 | 4236234.2917 | 4149780.5306 | 4149780.5306 | 4236234.2917 | 4149780.5306 | 4228793.0792 | 4187334.3235 | 4271081.0100 | 4146680.5922 | 4106808.6635 | 4146680.5922 | 4146680.5922 | 4202454.8873 | 4202454.8873 | 4182817.2477 | 4124990.2811 | 4106068.3073 | 4124990.2811 | 4124990.2811 | 4160008.8756 | 4169273.9287 | 4178580.3438 | 4087344.9651 | 4087344.9651 | 4096288.8271 | 4096288.8271 |
sim_num_branches                            167638 |       167638 |       167638 |       167638 |       167638 |       167638 |       167638 |       356945 |       356945 |       356945 |       356945 |       356945 |       356945 |       356945 |       760840 |       760840 |       760840 |       760840 |       760840 |       760840 |       760840 |      1617157 |      1617157 |      1617157 |      1617157 |      1617157 |      1617157 |      1617157 |      3428239 |      3428239 |      3428239 |      3428239 |      3428239 |      3428239 |      3428239 |      7247451 |      7247451 |      7247451 |      7247451 |      7247451 |      7247451 |      7247451 |     15279345 |     15279345 |     15279345 |     15279345 |     15279345 |     15279345 |     15279345 |     32124828 |     32124828 |     32124828 |     32124828 |     32124828 |     32124828 |     32124828 |     67392782 |     67392782 |     67392782 |     67392782 |     67392782 |     67392782 |     67392782 |    141078919 |    141078919 |    141078919 |    141078919 |    141078919 |    141078919 |    141078919 |    294734687 |    294734687 |    294734687 |    294734687 |    294734687 |    294734687 |    294734687 |
sim_IPB                                     6.2392 |       6.2392 |       6.2392 |       6.2392 |       6.2392 |       6.2392 |       6.2392 |       6.2575 |       6.2575 |       6.2575 |       6.2575 |       6.2575 |       6.2575 |       6.2575 |       6.2740 |       6.2740 |       6.2740 |       6.2740 |       6.2740 |       6.2740 |       6.2740 |       6.2879 |       6.2879 |       6.2879 |       6.2879 |       6.2879 |       6.2879 |       6.2879 |       6.3003 |       6.3003 |       6.3003 |       6.3003 |       6.3003 |       6.3003 |       6.3003 |       6.3112 |       6.3112 |       6.3112 |       6.3112 |       6.3112 |       6.3112 |       6.3112 |       6.3209 |       6.3209 |       6.3209 |       6.3209 |       6.3209 |       6.3209 |       6.3209 |       6.3297 |       6.3297 |       6.3297 |       6.3297 |       6.3297 |       6.3297 |       6.3297 |       6.3376 |       6.3376 |       6.3376 |       6.3376 |       6.3376 |       6.3376 |       6.3376 |       6.3448 |       6.3448 |       6.3448 |       6.3448 |       6.3448 |       6.3448 |       6.3448 |       6.3515 |       6.3515 |       6.3515 |       6.3515 |       6.3515 |       6.3515 |       6.3515 |
bpred_bimod.lookups                         167638 |       167638 |       167638 |xxxxxxxxxxxxx |xxxxxxxxxxxxx |xxxxxxxxxxxxx |xxxxxxxxxxxxx |       356945 |       356945 |       356945 |xxxxxxxxxxxxx |xxxxxxxxxxxxx |xxxxxxxxxxxxx |xxxxxxxxxxxxx |       760840 |       760840 |       760840 |xxxxxxxxxxxxx |xxxxxxxxxxxxx |xxxxxxxxxxxxx |xxxxxxxxxxxxx |      1617157 |      1617157 |      1617157 |xxxxxxxxxxxxx |xxxxxxxxxxxxx |xxxxxxxxxxxxx |xxxxxxxxxxxxx |      3428239 |      3428239 |      3428239 |xxxxxxxxxxxxx |xxxxxxxxxxxxx |xxxxxxxxxxxxx |xxxxxxxxxxxxx |      7247451 |      7247451 |      7247451 |xxxxxxxxxxxxx |xxxxxxxxxxxxx |xxxxxxxxxxxxx |xxxxxxxxxxxxx |     15279345 |     15279345 |     15279345 |xxxxxxxxxxxxx |xxxxxxxxxxxxx |xxxxxxxxxxxxx |xxxxxxxxxxxxx |     32124828 |     32124828 |     32124828 |xxxxxxxxxxxxx |xxxxxxxxxxxxx |xxxxxxxxxxxxx |xxxxxxxxxxxxx |     67392782 |     67392782 |     67392782 |xxxxxxxxxxxxx |xxxxxxxxxxxxx |xxxxxxxxxxxxx |xxxxxxxxxxxxx |    141078919 |    141078919 |    141078919 |xxxxxxxxxxxxx |xxxxxxxxxxxxx |xxxxxxxxxxxxx |xxxxxxxxxxxxx |    294734687 |    294734687 |    294734687 |
bpred_bimod.updates                         167638 |       167638 |       167638 |xxxxxxxxxxxxx |xxxxxxxxxxxxx |xxxxxxxxxxxxx |xxxxxxxxxxxxx |       356945 |       356945 |       356945 |xxxxxxxxxxxxx |xxxxxxxxxxxxx |xxxxxxxxxxxxx |xxxxxxxxxxxxx |       760840 |       760840 |       760840 |xxxxxxxxxxxxx |xxxxxxxxxxxxx |xxxxxxxxxxxxx |xxxxxxxxxxxxx |      1617157 |      1617157 |      1617157 |xxxxxxxxxxxxx |xxxxxxxxxxxxx |xxxxxxxxxxxxx |xxxxxxxxxxxxx |      3428239 |      3428239 |      3428239 |xxxxxxxxxxxxx |xxxxxxxxxxxxx |xxxxxxxxxxxxx |xxxxxxxxxxxxx |      7247451 |      7247451 |      7247451 |xxxxxxxxxxxxx |xxxxxxxxxxxxx |xxxxxxxxxxxxx |xxxxxxxxxxxxx |     15279345 |     15279345 |     15279345 |xxxxxxxxxxxxx |xxxxxxxxxxxxx |xxxxxxxxxxxxx |xxxxxxxxxxxxx |     32124828 |     32124828 |     32124828 |xxxxxxxxxxxxx |xxxxxxxxxxxxx |xxxxxxxxxxxxx |xxxxxxxxxxxxx |     67392782 |     67392782 |     67392782 |xxxxxxxxxxxxx |xxxxxxxxxxxxx |xxxxxxxxxxxxx |xxxxxxxxxxxxx |    141078919 |    141078919 |    141078919 |xxxxxxxxxxxxx |xxxxxxxxxxxxx |xxxxxxxxxxxxx |xxxxxxxxxxxxx |    294734687 |    294734687 |    294734687 |
bpred_bimod.addr_hits                       139897 |       139900 |       139902 |xxxxxxxxxxxxx |xxxxxxxxxxxxx |xxxxxxxxxxxxx |xxxxxxxxxxxxx |       297522 |       297524 |       297525 |xxxxxxxxxxxxx |xxxxxxxxxxxxx |xxxxxxxxxxxxx |xxxxxxxxxxxxx |       634171 |       634172 |       634173 |xxxxxxxxxxxxx |xxxxxxxxxxxxx |xxxxxxxxxxxxx |xxxxxxxxxxxxx |      1347376 |      1347380 |      1347381 |xxxxxxxxxxxxx |xxxxxxxxxxxxx |xxxxxxxxxxxxx |xxxxxxxxxxxxx |      2855820 |      2855825 |      2855826 |xxxxxxxxxxxxx |xxxxxxxxxxxxx |xxxxxxxxxxxxx |xxxxxxxxxxxxx |      6037228 |      6037234 |      6037235 |xxxxxxxxxxxxx |xxxxxxxxxxxxx |xxxxxxxxxxxxx |xxxxxxxxxxxxx |     12727595 |     12727601 |     12727602 |xxxxxxxxxxxxx |xxxxxxxxxxxxx |xxxxxxxxxxxxx |xxxxxxxxxxxxx |     26759031 |     26759037 |     26759038 |xxxxxxxxxxxxx |xxxxxxxxxxxxx |xxxxxxxxxxxxx |xxxxxxxxxxxxx |     56137668 |     56137672 |     56137673 |xxxxxxxxxxxxx |xxxxxxxxxxxxx |xxxxxxxxxxxxx |xxxxxxxxxxxxx |    117519785 |    117519792 |    117519793 |xxxxxxxxxxxxx |xxxxxxxxxxxxx |xxxxxxxxxxxxx |xxxxxxxxxxxxx |    245516656 |    245516660 |    245516661 |
bpred_bimod.dir_hits                        140008 |       140011 |       140013 |xxxxxxxxxxxxx |xxxxxxxxxxxxx |xxxxxxxxxxxxx |xxxxxxxxxxxxx |       297639 |       297637 |       297638 |xxxxxxxxxxxxx |xxxxxxxxxxxxx |xxxxxxxxxxxxx |xxxxxxxxxxxxx |       634287 |       634286 |       634287 |xxxxxxxxxxxxx |xxxxxxxxxxxxx |xxxxxxxxxxxxx |xxxxxxxxxxxxx |      1347485 |      1347487 |      1347491 |xxxxxxxxxxxxx |xxxxxxxxxxxxx |xxxxxxxxxxxxx |xxxxxxxxxxxxx |      2855932 |      2855935 |      2855939 |xxxxxxxxxxxxx |xxxxxxxxxxxxx |xxxxxxxxxxxxx |xxxxxxxxxxxxx |      6037334 |      6037339 |      6037342 |xxxxxxxxxxxxx |xxxxxxxxxxxxx |xxxxxxxxxxxxx |xxxxxxxxxxxxx |     12727707 |     12727711 |     12727715 |xxxxxxxxxxxxx |xxxxxxxxxxxxx |xxxxxxxxxxxxx |xxxxxxxxxxxxx |     26759139 |     26759145 |     26759149 |xxxxxxxxxxxxx |xxxxxxxxxxxxx |xxxxxxxxxxxxx |xxxxxxxxxxxxx |     56137778 |     56137779 |     56137783 |xxxxxxxxxxxxx |xxxxxxxxxxxxx |xxxxxxxxxxxxx |xxxxxxxxxxxxx |    117519897 |    117519904 |    117519907 |xxxxxxxxxxxxx |xxxxxxxxxxxxx |xxxxxxxxxxxxx |xxxxxxxxxxxxx |    245516764 |    245516766 |    245516770 |
bpred_bimod.misses                           27630 |        27627 |        27625 |xxxxxxxxxxxxx |xxxxxxxxxxxxx |xxxxxxxxxxxxx |xxxxxxxxxxxxx |        59306 |        59308 |        59307 |xxxxxxxxxxxxx |xxxxxxxxxxxxx |xxxxxxxxxxxxx |xxxxxxxxxxxxx |       126553 |       126554 |       126553 |xxxxxxxxxxxxx |xxxxxxxxxxxxx |xxxxxxxxxxxxx |xxxxxxxxxxxxx |       269672 |       269670 |       269666 |xxxxxxxxxxxxx |xxxxxxxxxxxxx |xxxxxxxxxxxxx |xxxxxxxxxxxxx |       572307 |       572304 |       572300 |xxxxxxxxxxxxx |xxxxxxxxxxxxx |xxxxxxxxxxxxx |xxxxxxxxxxxxx |      1210117 |      1210112 |      1210109 |xxxxxxxxxxxxx |xxxxxxxxxxxxx |xxxxxxxxxxxxx |xxxxxxxxxxxxx |      2551638 |      2551634 |      2551630 |xxxxxxxxxxxxx |xxxxxxxxxxxxx |xxxxxxxxxxxxx |xxxxxxxxxxxxx |      5365689 |      5365683 |      5365679 |xxxxxxxxxxxxx |xxxxxxxxxxxxx |xxxxxxxxxxxxx |xxxxxxxxxxxxx |     11255004 |     11255003 |     11254999 |xxxxxxxxxxxxx |xxxxxxxxxxxxx |xxxxxxxxxxxxx |xxxxxxxxxxxxx |     23559022 |     23559015 |     23559012 |xxxxxxxxxxxxx |xxxxxxxxxxxxx |xxxxxxxxxxxxx |xxxxxxxxxxxxx |     49217923 |     49217921 |     49217917 |
bpred_bimod.jr_hits                           8553 |         8553 |         8553 |xxxxxxxxxxxxx |xxxxxxxxxxxxx |xxxxxxxxxxxxx |xxxxxxxxxxxxx |        16745 |        16745 |        16745 |xxxxxxxxxxxxx |xxxxxxxxxxxxx |xxxxxxxxxxxxx |xxxxxxxxxxxxx |        33129 |        33129 |        33129 |xxxxxxxxxxxxx |xxxxxxxxxxxxx |xxxxxxxxxxxxx |xxxxxxxxxxxxx |        65897 |        65897 |        65897 |xxxxxxxxxxxxx |xxxxxxxxxxxxx |xxxxxxxxxxxxx |xxxxxxxxxxxxx |       131433 |       131433 |       131433 |xxxxxxxxxxxxx |xxxxxxxxxxxxx |xxxxxxxxxxxxx |xxxxxxxxxxxxx |       262505 |       262505 |       262505 |xxxxxxxxxxxxx |xxxxxxxxxxxxx |xxxxxxxxxxxxx |xxxxxxxxxxxxx |       524649 |       524649 |       524649 |xxxxxxxxxxxxx |xxxxxxxxxxxxx |xxxxxxxxxxxxx |xxxxxxxxxxxxx |      1048937 |      1048937 |      1048937 |xxxxxxxxxxxxx |xxxxxxxxxxxxx |xxxxxxxxxxxxx |xxxxxxxxxxxxx |      2097513 |      2097513 |      2097513 |xxxxxxxxxxxxx |xxxxxxxxxxxxx |xxxxxxxxxxxxx |xxxxxxxxxxxxx |      4194665 |      4194665 |      4194665 |xxxxxxxxxxxxx |xxxxxxxxxxxxx |xxxxxxxxxxxxx |xxxxxxxxxxxxx |      8388969 |      8388969 |      8388969 |
bpred_bimod.jr_seen                           8554 |         8554 |         8554 |xxxxxxxxxxxxx |xxxxxxxxxxxxx |xxxxxxxxxxxxx |xxxxxxxxxxxxx |        16746 |        16746 |        16746 |xxxxxxxxxxxxx |xxxxxxxxxxxxx |xxxxxxxxxxxxx |xxxxxxxxxxxxx |        33130 |        33130 |        33130 |xxxxxxxxxxxxx |xxxxxxxxxxxxx |xxxxxxxxxxxxx |xxxxxxxxxxxxx |        65898 |        65898 |        65898 |xxxxxxxxxxxxx |xxxxxxxxxxxxx |xxxxxxxxxxxxx |xxxxxxxxxxxxx |       131434 |       131434 |       131434 |xxxxxxxxxxxxx |xxxxxxxxxxxxx |xxxxxxxxxxxxx |xxxxxxxxxxxxx |       262506 |       262506 |       262506 |xxxxxxxxxxxxx |xxxxxxxxxxxxx |xxxxxxxxxxxxx |xxxxxxxxxxxxx |       524650 |       524650 |       524650 |xxxxxxxxxxxxx |xxxxxxxxxxxxx |xxxxxxxxxxxxx |xxxxxxxxxxxxx |      1048938 |      1048938 |      1048938 |xxxxxxxxxxxxx |xxxxxxxxxxxxx |xxxxxxxxxxxxx |xxxxxxxxxxxxx |      2097514 |      2097514 |      2097514 |xxxxxxxxxxxxx |xxxxxxxxxxxxx |xxxxxxxxxxxxx |xxxxxxxxxxxxx |      4194666 |      4194666 |      4194666 |xxxxxxxxxxxxx |xxxxxxxxxxxxx |xxxxxxxxxxxxx |xxxxxxxxxxxxx |      8388970 |      8388970 |      8388970 |
bpred_bimod.jr_non_ras_hits.PP                   0 |            0 |            0 |xxxxxxxxxxxxx |xxxxxxxxxxxxx |xxxxxxxxxxxxx |xxxxxxxxxxxxx |            0 |            0 |            0 |xxxxxxxxxxxxx |xxxxxxxxxxxxx |xxxxxxxxxxxxx |xxxxxxxxxxxxx |            0 |            0 |            0 |xxxxxxxxxxxxx |xxxxxxxxxxxxx |xxxxxxxxxxxxx |xxxxxxxxxxxxx |            0 |            0 |            0 |xxxxxxxxxxxxx |xxxxxxxxxxxxx |xxxxxxxxxxxxx |xxxxxxxxxxxxx |            0 |            0 |            0 |xxxxxxxxxxxxx |xxxxxxxxxxxxx |xxxxxxxxxxxxx |xxxxxxxxxxxxx |            0 |            0 |            0 |xxxxxxxxxxxxx |xxxxxxxxxxxxx |xxxxxxxxxxxxx |xxxxxxxxxxxxx |            0 |            0 |            0 |xxxxxxxxxxxxx |xxxxxxxxxxxxx |xxxxxxxxxxxxx |xxxxxxxxxxxxx |            0 |            0 |            0 |xxxxxxxxxxxxx |xxxxxxxxxxxxx |xxxxxxxxxxxxx |xxxxxxxxxxxxx |            0 |            0 |            0 |xxxxxxxxxxxxx |xxxxxxxxxxxxx |xxxxxxxxxxxxx |xxxxxxxxxxxxx |            0 |            0 |            0 |xxxxxxxxxxxxx |xxxxxxxxxxxxx |xxxxxxxxxxxxx |xxxxxxxxxxxxx |            0 |            0 |            0 |
bpred_bimod.jr_non_ras_seen.PP                   0 |            0 |            0 |xxxxxxxxxxxxx |xxxxxxxxxxxxx |xxxxxxxxxxxxx |xxxxxxxxxxxxx |            0 |            0 |            0 |xxxxxxxxxxxxx |xxxxxxxxxxxxx |xxxxxxxxxxxxx |xxxxxxxxxxxxx |            0 |            0 |            0 |xxxxxxxxxxxxx |xxxxxxxxxxxxx |xxxxxxxxxxxxx |xxxxxxxxxxxxx |            0 |            0 |            0 |xxxxxxxxxxxxx |xxxxxxxxxxxxx |xxxxxxxxxxxxx |xxxxxxxxxxxxx |            0 |            0 |            0 |xxxxxxxxxxxxx |xxxxxxxxxxxxx |xxxxxxxxxxxxx |xxxxxxxxxxxxx |            0 |            0 |            0 |xxxxxxxxxxxxx |xxxxxxxxxxxxx |xxxxxxxxxxxxx |xxxxxxxxxxxxx |            0 |            0 |            0 |xxxxxxxxxxxxx |xxxxxxxxxxxxx |xxxxxxxxxxxxx |xxxxxxxxxxxxx |            0 |            0 |            0 |xxxxxxxxxxxxx |xxxxxxxxxxxxx |xxxxxxxxxxxxx |xxxxxxxxxxxxx |            0 |            0 |            0 |xxxxxxxxxxxxx |xxxxxxxxxxxxx |xxxxxxxxxxxxx |xxxxxxxxxxxxx |            0 |            0 |            0 |xxxxxxxxxxxxx |xxxxxxxxxxxxx |xxxxxxxxxxxxx |xxxxxxxxxxxxx |            0 |            0 |            0 |
bpred_bimod.bpred_addr_rate                 0.8345 |       0.8345 |       0.8345 |xxxxxxxxxxxxx |xxxxxxxxxxxxx |xxxxxxxxxxxxx |xxxxxxxxxxxxx |       0.8335 |       0.8335 |       0.8335 |xxxxxxxxxxxxx |xxxxxxxxxxxxx |xxxxxxxxxxxxx |xxxxxxxxxxxxx |       0.8335 |       0.8335 |       0.8335 |xxxxxxxxxxxxx |xxxxxxxxxxxxx |xxxxxxxxxxxxx |xxxxxxxxxxxxx |       0.8332 |       0.8332 |       0.8332 |xxxxxxxxxxxxx |xxxxxxxxxxxxx |xxxxxxxxxxxxx |xxxxxxxxxxxxx |       0.8330 |       0.8330 |       0.8330 |xxxxxxxxxxxxx |xxxxxxxxxxxxx |xxxxxxxxxxxxx |xxxxxxxxxxxxx |       0.8330 |       0.8330 |       0.8330 |xxxxxxxxxxxxx |xxxxxxxxxxxxx |xxxxxxxxxxxxx |xxxxxxxxxxxxx |       0.8330 |       0.8330 |       0.8330 |xxxxxxxxxxxxx |xxxxxxxxxxxxx |xxxxxxxxxxxxx |xxxxxxxxxxxxx |       0.8330 |       0.8330 |       0.8330 |xxxxxxxxxxxxx |xxxxxxxxxxxxx |xxxxxxxxxxxxx |xxxxxxxxxxxxx |       0.8330 |       0.8330 |       0.8330 |xxxxxxxxxxxxx |xxxxxxxxxxxxx |xxxxxxxxxxxxx |xxxxxxxxxxxxx |       0.8330 |       0.8330 |       0.8330 |xxxxxxxxxxxxx |xxxxxxxxxxxxx |xxxxxxxxxxxxx |xxxxxxxxxxxxx |       0.8330 |       0.8330 |       0.8330 |
bpred_bimod.bpred_dir_rate                  0.8352 |       0.8352 |       0.8352 |xxxxxxxxxxxxx |xxxxxxxxxxxxx |xxxxxxxxxxxxx |xxxxxxxxxxxxx |       0.8339 |       0.8338 |       0.8338 |xxxxxxxxxxxxx |xxxxxxxxxxxxx |xxxxxxxxxxxxx |xxxxxxxxxxxxx |       0.8337 |       0.8337 |       0.8337 |xxxxxxxxxxxxx |xxxxxxxxxxxxx |xxxxxxxxxxxxx |xxxxxxxxxxxxx |       0.8332 |       0.8332 |       0.8332 |xxxxxxxxxxxxx |xxxxxxxxxxxxx |xxxxxxxxxxxxx |xxxxxxxxxxxxx |       0.8331 |       0.8331 |       0.8331 |xxxxxxxxxxxxx |xxxxxxxxxxxxx |xxxxxxxxxxxxx |xxxxxxxxxxxxx |       0.8330 |       0.8330 |       0.8330 |xxxxxxxxxxxxx |xxxxxxxxxxxxx |xxxxxxxxxxxxx |xxxxxxxxxxxxx |       0.8330 |       0.8330 |       0.8330 |xxxxxxxxxxxxx |xxxxxxxxxxxxx |xxxxxxxxxxxxx |xxxxxxxxxxxxx |       0.8330 |       0.8330 |       0.8330 |xxxxxxxxxxxxx |xxxxxxxxxxxxx |xxxxxxxxxxxxx |xxxxxxxxxxxxx |       0.8330 |       0.8330 |       0.8330 |xxxxxxxxxxxxx |xxxxxxxxxxxxx |xxxxxxxxxxxxx |xxxxxxxxxxxxx |       0.8330 |       0.8330 |       0.8330 |xxxxxxxxxxxxx |xxxxxxxxxxxxx |xxxxxxxxxxxxx |xxxxxxxxxxxxx |       0.8330 |       0.8330 |       0.8330 |
bpred_bimod.bpred_jr_rate                   0.9999 |       0.9999 |       0.9999 |xxxxxxxxxxxxx |xxxxxxxxxxxxx |xxxxxxxxxxxxx |xxxxxxxxxxxxx |       0.9999 |       0.9999 |       0.9999 |xxxxxxxxxxxxx |xxxxxxxxxxxxx |xxxxxxxxxxxxx |xxxxxxxxxxxxx |       1.0000 |       1.0000 |       1.0000 |xxxxxxxxxxxxx |xxxxxxxxxxxxx |xxxxxxxxxxxxx |xxxxxxxxxxxxx |       1.0000 |       1.0000 |       1.0000 |xxxxxxxxxxxxx |xxxxxxxxxxxxx |xxxxxxxxxxxxx |xxxxxxxxxxxxx |       1.0000 |       1.0000 |       1.0000 |xxxxxxxxxxxxx |xxxxxxxxxxxxx |xxxxxxxxxxxxx |xxxxxxxxxxxxx |       1.0000 |       1.0000 |       1.0000 |xxxxxxxxxxxxx |xxxxxxxxxxxxx |xxxxxxxxxxxxx |xxxxxxxxxxxxx |       1.0000 |       1.0000 |       1.0000 |xxxxxxxxxxxxx |xxxxxxxxxxxxx |xxxxxxxxxxxxx |xxxxxxxxxxxxx |       1.0000 |       1.0000 |       1.0000 |xxxxxxxxxxxxx |xxxxxxxxxxxxx |xxxxxxxxxxxxx |xxxxxxxxxxxxx |       1.0000 |       1.0000 |       1.0000 |xxxxxxxxxxxxx |xxxxxxxxxxxxx |xxxxxxxxxxxxx |xxxxxxxxxxxxx |       1.0000 |       1.0000 |       1.0000 |xxxxxxxxxxxxx |xxxxxxxxxxxxx |xxxxxxxxxxxxx |xxxxxxxxxxxxx |       1.0000 |       1.0000 |       1.0000 |
bpred_bimod.bpred_jr_non_ras_rate.PP       <error: |      <error: |      <error: |xxxxxxxxxxxxx |xxxxxxxxxxxxx |xxxxxxxxxxxxx |xxxxxxxxxxxxx |      <error: |      <error: |      <error: |xxxxxxxxxxxxx |xxxxxxxxxxxxx |xxxxxxxxxxxxx |xxxxxxxxxxxxx |      <error: |      <error: |      <error: |xxxxxxxxxxxxx |xxxxxxxxxxxxx |xxxxxxxxxxxxx |xxxxxxxxxxxxx |      <error: |      <error: |      <error: |xxxxxxxxxxxxx |xxxxxxxxxxxxx |xxxxxxxxxxxxx |xxxxxxxxxxxxx |      <error: |      <error: |      <error: |xxxxxxxxxxxxx |xxxxxxxxxxxxx |xxxxxxxxxxxxx |xxxxxxxxxxxxx |      <error: |      <error: |      <error: |xxxxxxxxxxxxx |xxxxxxxxxxxxx |xxxxxxxxxxxxx |xxxxxxxxxxxxx |      <error: |      <error: |      <error: |xxxxxxxxxxxxx |xxxxxxxxxxxxx |xxxxxxxxxxxxx |xxxxxxxxxxxxx |      <error: |      <error: |      <error: |xxxxxxxxxxxxx |xxxxxxxxxxxxx |xxxxxxxxxxxxx |xxxxxxxxxxxxx |      <error: |      <error: |      <error: |xxxxxxxxxxxxx |xxxxxxxxxxxxx |xxxxxxxxxxxxx |xxxxxxxxxxxxx |      <error: |      <error: |      <error: |xxxxxxxxxxxxx |xxxxxxxxxxxxx |xxxxxxxxxxxxx |xxxxxxxxxxxxx |      <error: |      <error: |      <error: |
bpred_bimod.retstack_pushes                   8556 |         8556 |         8556 |xxxxxxxxxxxxx |xxxxxxxxxxxxx |xxxxxxxxxxxxx |xxxxxxxxxxxxx |        16748 |        16748 |        16748 |xxxxxxxxxxxxx |xxxxxxxxxxxxx |xxxxxxxxxxxxx |xxxxxxxxxxxxx |        33132 |        33132 |        33132 |xxxxxxxxxxxxx |xxxxxxxxxxxxx |xxxxxxxxxxxxx |xxxxxxxxxxxxx |        65900 |        65900 |        65900 |xxxxxxxxxxxxx |xxxxxxxxxxxxx |xxxxxxxxxxxxx |xxxxxxxxxxxxx |       131436 |       131436 |       131436 |xxxxxxxxxxxxx |xxxxxxxxxxxxx |xxxxxxxxxxxxx |xxxxxxxxxxxxx |       262508 |       262508 |       262508 |xxxxxxxxxxxxx |xxxxxxxxxxxxx |xxxxxxxxxxxxx |xxxxxxxxxxxxx |       524652 |       524652 |       524652 |xxxxxxxxxxxxx |xxxxxxxxxxxxx |xxxxxxxxxxxxx |xxxxxxxxxxxxx |      1048940 |      1048940 |      1048940 |xxxxxxxxxxxxx |xxxxxxxxxxxxx |xxxxxxxxxxxxx |xxxxxxxxxxxxx |      2097516 |      2097516 |      2097516 |xxxxxxxxxxxxx |xxxxxxxxxxxxx |xxxxxxxxxxxxx |xxxxxxxxxxxxx |      4194668 |      4194668 |      4194668 |xxxxxxxxxxxxx |xxxxxxxxxxxxx |xxxxxxxxxxxxx |xxxxxxxxxxxxx |      8388972 |      8388972 |      8388972 |
bpred_bimod.retstack_pops                     8554 |         8554 |         8554 |xxxxxxxxxxxxx |xxxxxxxxxxxxx |xxxxxxxxxxxxx |xxxxxxxxxxxxx |        16746 |        16746 |        16746 |xxxxxxxxxxxxx |xxxxxxxxxxxxx |xxxxxxxxxxxxx |xxxxxxxxxxxxx |        33130 |        33130 |        33130 |xxxxxxxxxxxxx |xxxxxxxxxxxxx |xxxxxxxxxxxxx |xxxxxxxxxxxxx |        65898 |        65898 |        65898 |xxxxxxxxxxxxx |xxxxxxxxxxxxx |xxxxxxxxxxxxx |xxxxxxxxxxxxx |       131434 |       131434 |       131434 |xxxxxxxxxxxxx |xxxxxxxxxxxxx |xxxxxxxxxxxxx |xxxxxxxxxxxxx |       262506 |       262506 |       262506 |xxxxxxxxxxxxx |xxxxxxxxxxxxx |xxxxxxxxxxxxx |xxxxxxxxxxxxx |       524650 |       524650 |       524650 |xxxxxxxxxxxxx |xxxxxxxxxxxxx |xxxxxxxxxxxxx |xxxxxxxxxxxxx |      1048938 |      1048938 |      1048938 |xxxxxxxxxxxxx |xxxxxxxxxxxxx |xxxxxxxxxxxxx |xxxxxxxxxxxxx |      2097514 |      2097514 |      2097514 |xxxxxxxxxxxxx |xxxxxxxxxxxxx |xxxxxxxxxxxxx |xxxxxxxxxxxxx |      4194666 |      4194666 |      4194666 |xxxxxxxxxxxxx |xxxxxxxxxxxxx |xxxxxxxxxxxxx |xxxxxxxxxxxxx |      8388970 |      8388970 |      8388970 |
bpred_bimod.used_ras.PP                       8554 |         8554 |         8554 |xxxxxxxxxxxxx |xxxxxxxxxxxxx |xxxxxxxxxxxxx |xxxxxxxxxxxxx |        16746 |        16746 |        16746 |xxxxxxxxxxxxx |xxxxxxxxxxxxx |xxxxxxxxxxxxx |xxxxxxxxxxxxx |        33130 |        33130 |        33130 |xxxxxxxxxxxxx |xxxxxxxxxxxxx |xxxxxxxxxxxxx |xxxxxxxxxxxxx |        65898 |        65898 |        65898 |xxxxxxxxxxxxx |xxxxxxxxxxxxx |xxxxxxxxxxxxx |xxxxxxxxxxxxx |       131434 |       131434 |       131434 |xxxxxxxxxxxxx |xxxxxxxxxxxxx |xxxxxxxxxxxxx |xxxxxxxxxxxxx |       262506 |       262506 |       262506 |xxxxxxxxxxxxx |xxxxxxxxxxxxx |xxxxxxxxxxxxx |xxxxxxxxxxxxx |       524650 |       524650 |       524650 |xxxxxxxxxxxxx |xxxxxxxxxxxxx |xxxxxxxxxxxxx |xxxxxxxxxxxxx |      1048938 |      1048938 |      1048938 |xxxxxxxxxxxxx |xxxxxxxxxxxxx |xxxxxxxxxxxxx |xxxxxxxxxxxxx |      2097514 |      2097514 |      2097514 |xxxxxxxxxxxxx |xxxxxxxxxxxxx |xxxxxxxxxxxxx |xxxxxxxxxxxxx |      4194666 |      4194666 |      4194666 |xxxxxxxxxxxxx |xxxxxxxxxxxxx |xxxxxxxxxxxxx |xxxxxxxxxxxxx |      8388970 |      8388970 |      8388970 |
bpred_bimod.ras_hits.PP                       8553 |         8553 |         8553 |xxxxxxxxxxxxx |xxxxxxxxxxxxx |xxxxxxxxxxxxx |xxxxxxxxxxxxx |        16745 |        16745 |        16745 |xxxxxxxxxxxxx |xxxxxxxxxxxxx |xxxxxxxxxxxxx |xxxxxxxxxxxxx |        33129 |        33129 |        33129 |xxxxxxxxxxxxx |xxxxxxxxxxxxx |xxxxxxxxxxxxx |xxxxxxxxxxxxx |        65897 |        65897 |        65897 |xxxxxxxxxxxxx |xxxxxxxxxxxxx |xxxxxxxxxxxxx |xxxxxxxxxxxxx |       131433 |       131433 |       131433 |xxxxxxxxxxxxx |xxxxxxxxxxxxx |xxxxxxxxxxxxx |xxxxxxxxxxxxx |       262505 |       262505 |       262505 |xxxxxxxxxxxxx |xxxxxxxxxxxxx |xxxxxxxxxxxxx |xxxxxxxxxxxxx |       524649 |       524649 |       524649 |xxxxxxxxxxxxx |xxxxxxxxxxxxx |xxxxxxxxxxxxx |xxxxxxxxxxxxx |      1048937 |      1048937 |      1048937 |xxxxxxxxxxxxx |xxxxxxxxxxxxx |xxxxxxxxxxxxx |xxxxxxxxxxxxx |      2097513 |      2097513 |      2097513 |xxxxxxxxxxxxx |xxxxxxxxxxxxx |xxxxxxxxxxxxx |xxxxxxxxxxxxx |      4194665 |      4194665 |      4194665 |xxxxxxxxxxxxx |xxxxxxxxxxxxx |xxxxxxxxxxxxx |xxxxxxxxxxxxx |      8388969 |      8388969 |      8388969 |
bpred_bimod.ras_rate.PP                     0.9999 |       0.9999 |       0.9999 |xxxxxxxxxxxxx |xxxxxxxxxxxxx |xxxxxxxxxxxxx |xxxxxxxxxxxxx |       0.9999 |       0.9999 |       0.9999 |xxxxxxxxxxxxx |xxxxxxxxxxxxx |xxxxxxxxxxxxx |xxxxxxxxxxxxx |       1.0000 |       1.0000 |       1.0000 |xxxxxxxxxxxxx |xxxxxxxxxxxxx |xxxxxxxxxxxxx |xxxxxxxxxxxxx |       1.0000 |       1.0000 |       1.0000 |xxxxxxxxxxxxx |xxxxxxxxxxxxx |xxxxxxxxxxxxx |xxxxxxxxxxxxx |       1.0000 |       1.0000 |       1.0000 |xxxxxxxxxxxxx |xxxxxxxxxxxxx |xxxxxxxxxxxxx |xxxxxxxxxxxxx |       1.0000 |       1.0000 |       1.0000 |xxxxxxxxxxxxx |xxxxxxxxxxxxx |xxxxxxxxxxxxx |xxxxxxxxxxxxx |       1.0000 |       1.0000 |       1.0000 |xxxxxxxxxxxxx |xxxxxxxxxxxxx |xxxxxxxxxxxxx |xxxxxxxxxxxxx |       1.0000 |       1.0000 |       1.0000 |xxxxxxxxxxxxx |xxxxxxxxxxxxx |xxxxxxxxxxxxx |xxxxxxxxxxxxx |       1.0000 |       1.0000 |       1.0000 |xxxxxxxxxxxxx |xxxxxxxxxxxxx |xxxxxxxxxxxxx |xxxxxxxxxxxxx |       1.0000 |       1.0000 |       1.0000 |xxxxxxxxxxxxx |xxxxxxxxxxxxx |xxxxxxxxxxxxx |xxxxxxxxxxxxx |       1.0000 |       1.0000 |       1.0000 |
bpred_2lev.lookups                   xxxxxxxxxxxxx |xxxxxxxxxxxxx |xxxxxxxxxxxxx |       167638 |       167638 |       167638 |       167638 |xxxxxxxxxxxxx |xxxxxxxxxxxxx |xxxxxxxxxxxxx |       356945 |       356945 |       356945 |       356945 |xxxxxxxxxxxxx |xxxxxxxxxxxxx |xxxxxxxxxxxxx |       760840 |       760840 |       760840 |       760840 |xxxxxxxxxxxxx |xxxxxxxxxxxxx |xxxxxxxxxxxxx |      1617157 |      1617157 |      1617157 |      1617157 |xxxxxxxxxxxxx |xxxxxxxxxxxxx |xxxxxxxxxxxxx |      3428239 |      3428239 |      3428239 |      3428239 |xxxxxxxxxxxxx |xxxxxxxxxxxxx |xxxxxxxxxxxxx |      7247451 |      7247451 |      7247451 |      7247451 |xxxxxxxxxxxxx |xxxxxxxxxxxxx |xxxxxxxxxxxxx |     15279345 |     15279345 |     15279345 |     15279345 |xxxxxxxxxxxxx |xxxxxxxxxxxxx |xxxxxxxxxxxxx |     32124828 |     32124828 |     32124828 |     32124828 |xxxxxxxxxxxxx |xxxxxxxxxxxxx |xxxxxxxxxxxxx |     67392782 |     67392782 |     67392782 |     67392782 |xxxxxxxxxxxxx |xxxxxxxxxxxxx |xxxxxxxxxxxxx |    141078919 |    141078919 |    141078919 |    141078919 |xxxxxxxxxxxxx |xxxxxxxxxxxxx |xxxxxxxxxxxxx |    294734687 |    294734687 |    294734687 |    294734687 |
[...]
bpred_2lev.retstack_pushes           xxxxxxxxxxxxx |xxxxxxxxxxxxx |xxxxxxxxxxxxx |         8556 |         8556 |         8556 |         8556 |xxxxxxxxxxxxx |xxxxxxxxxxxxx |xxxxxxxxxxxxx |        16748 |        16748 |        16748 |        16748 |xxxxxxxxxxxxx |xxxxxxxxxxxxx |xxxxxxxxxxxxx |        33132 |        33132 |        33132 |        33132 |xxxxxxxxxxxxx |xxxxxxxxxxxxx |xxxxxxxxxxxxx |        65900 |        65900 |        65900 |        65900 |xxxxxxxxxxxxx |xxxxxxxxxxxxx |xxxxxxxxxxxxx |       131436 |       131436 |       131436 |       131436 |xxxxxxxxxxxxx |xxxxxxxxxxxxx |xxxxxxxxxxxxx |       262508 |       262508 |       262508 |       262508 |xxxxxxxxxxxxx |xxxxxxxxxxxxx |xxxxxxxxxxxxx |       524652 |       524652 |       524652 |       524652 |xxxxxxxxxxxxx |xxxxxxxxxxxxx |xxxxxxxxxxxxx |      1048940 |      1048940 |      1048940 |      1048940 |xxxxxxxxxxxxx |xxxxxxxxxxxxx |xxxxxxxxxxxxx |      2097516 |      2097516 |      2097516 |      2097516 |xxxxxxxxxxxxx |xxxxxxxxxxxxx |xxxxxxxxxxxxx |      4194668 |      4194668 |      4194668 |      4194668 |xxxxxxxxxxxxx |xxxxxxxxxxxxx |xxxxxxxxxxxxx |      8388972 |      8388972 |      8388972 |      8388972 |
bpred_2lev.retstack_pops             xxxxxxxxxxxxx |xxxxxxxxxxxxx |xxxxxxxxxxxxx |         8554 |         8554 |         8554 |         8554 |xxxxxxxxxxxxx |xxxxxxxxxxxxx |xxxxxxxxxxxxx |        16746 |        16746 |        16746 |        16746 |xxxxxxxxxxxxx |xxxxxxxxxxxxx |xxxxxxxxxxxxx |        33130 |        33130 |        33130 |        33130 |xxxxxxxxxxxxx |xxxxxxxxxxxxx |xxxxxxxxxxxxx |        65898 |        65898 |        65898 |        65898 |xxxxxxxxxxxxx |xxxxxxxxxxxxx |xxxxxxxxxxxxx |       131434 |       131434 |       131434 |       131434 |xxxxxxxxxxxxx |xxxxxxxxxxxxx |xxxxxxxxxxxxx |       262506 |       262506 |       262506 |       262506 |xxxxxxxxxxxxx |xxxxxxxxxxxxx |xxxxxxxxxxxxx |       524650 |       524650 |       524650 |       524650 |xxxxxxxxxxxxx |xxxxxxxxxxxxx |xxxxxxxxxxxxx |      1048938 |      1048938 |      1048938 |      1048938 |xxxxxxxxxxxxx |xxxxxxxxxxxxx |xxxxxxxxxxxxx |      2097514 |      2097514 |      2097514 |      2097514 |xxxxxxxxxxxxx |xxxxxxxxxxxxx |xxxxxxxxxxxxx |      4194666 |      4194666 |      4194666 |      4194666 |xxxxxxxxxxxxx |xxxxxxxxxxxxx |xxxxxxxxxxxxx |      8388970 |      8388970 |      8388970 |      8388970 |
bpred_2lev.used_ras.PP               xxxxxxxxxxxxx |xxxxxxxxxxxxx |xxxxxxxxxxxxx |         8554 |         8554 |         8554 |         8554 |xxxxxxxxxxxxx |xxxxxxxxxxxxx |xxxxxxxxxxxxx |        16746 |        16746 |        16746 |        16746 |xxxxxxxxxxxxx |xxxxxxxxxxxxx |xxxxxxxxxxxxx |        33130 |        33130 |        33130 |        33130 |xxxxxxxxxxxxx |xxxxxxxxxxxxx |xxxxxxxxxxxxx |        65898 |        65898 |        65898 |        65898 |xxxxxxxxxxxxx |xxxxxxxxxxxxx |xxxxxxxxxxxxx |       131434 |       131434 |       131434 |       131434 |xxxxxxxxxxxxx |xxxxxxxxxxxxx |xxxxxxxxxxxxx |       262506 |       262506 |       262506 |       262506 |xxxxxxxxxxxxx |xxxxxxxxxxxxx |xxxxxxxxxxxxx |       524650 |       524650 |       524650 |       524650 |xxxxxxxxxxxxx |xxxxxxxxxxxxx |xxxxxxxxxxxxx |      1048938 |      1048938 |      1048938 |      1048938 |xxxxxxxxxxxxx |xxxxxxxxxxxxx |xxxxxxxxxxxxx |      2097514 |      2097514 |      2097514 |      2097514 |xxxxxxxxxxxxx |xxxxxxxxxxxxx |xxxxxxxxxxxxx |      4194666 |      4194666 |      4194666 |      4194666 |xxxxxxxxxxxxx |xxxxxxxxxxxxx |xxxxxxxxxxxxx |      8388970 |      8388970 |      8388970 |      8388970 |
bpred_2lev.ras_hits.PP               xxxxxxxxxxxxx |xxxxxxxxxxxxx |xxxxxxxxxxxxx |         8553 |         8553 |         8553 |         8553 |xxxxxxxxxxxxx |xxxxxxxxxxxxx |xxxxxxxxxxxxx |        16745 |        16745 |        16745 |        16745 |xxxxxxxxxxxxx |xxxxxxxxxxxxx |xxxxxxxxxxxxx |        33129 |        33129 |        33129 |        33129 |xxxxxxxxxxxxx |xxxxxxxxxxxxx |xxxxxxxxxxxxx |        65897 |        65897 |        65897 |        65897 |xxxxxxxxxxxxx |xxxxxxxxxxxxx |xxxxxxxxxxxxx |       131433 |       131433 |       131433 |       131433 |xxxxxxxxxxxxx |xxxxxxxxxxxxx |xxxxxxxxxxxxx |       262505 |       262505 |       262505 |       262505 |xxxxxxxxxxxxx |xxxxxxxxxxxxx |xxxxxxxxxxxxx |       524649 |       524649 |       524649 |       524649 |xxxxxxxxxxxxx |xxxxxxxxxxxxx |xxxxxxxxxxxxx |      1048937 |      1048937 |      1048937 |      1048937 |xxxxxxxxxxxxx |xxxxxxxxxxxxx |xxxxxxxxxxxxx |      2097513 |      2097513 |      2097513 |      2097513 |xxxxxxxxxxxxx |xxxxxxxxxxxxx |xxxxxxxxxxxxx |      4194665 |      4194665 |      4194665 |      4194665 |xxxxxxxxxxxxx |xxxxxxxxxxxxx |xxxxxxxxxxxxx |      8388969 |      8388969 |      8388969 |      8388969 |
bpred_2lev.ras_rate.PP               xxxxxxxxxxxxx |xxxxxxxxxxxxx |xxxxxxxxxxxxx |       0.9999 |       0.9999 |       0.9999 |       0.9999 |xxxxxxxxxxxxx |xxxxxxxxxxxxx |xxxxxxxxxxxxx |       0.9999 |       0.9999 |       0.9999 |       0.9999 |xxxxxxxxxxxxx |xxxxxxxxxxxxx |xxxxxxxxxxxxx |       1.0000 |       1.0000 |       1.0000 |       1.0000 |xxxxxxxxxxxxx |xxxxxxxxxxxxx |xxxxxxxxxxxxx |       1.0000 |       1.0000 |       1.0000 |       1.0000 |xxxxxxxxxxxxx |xxxxxxxxxxxxx |xxxxxxxxxxxxx |       1.0000 |       1.0000 |       1.0000 |       1.0000 |xxxxxxxxxxxxx |xxxxxxxxxxxxx |xxxxxxxxxxxxx |       1.0000 |       1.0000 |       1.0000 |       1.0000 |xxxxxxxxxxxxx |xxxxxxxxxxxxx |xxxxxxxxxxxxx |       1.0000 |       1.0000 |       1.0000 |       1.0000 |xxxxxxxxxxxxx |xxxxxxxxxxxxx |xxxxxxxxxxxxx |       1.0000 |       1.0000 |       1.0000 |       1.0000 |xxxxxxxxxxxxx |xxxxxxxxxxxxx |xxxxxxxxxxxxx |       1.0000 |       1.0000 |       1.0000 |       1.0000 |xxxxxxxxxxxxx |xxxxxxxxxxxxx |xxxxxxxxxxxxx |       1.0000 |       1.0000 |       1.0000 |       1.0000 |xxxxxxxxxxxxx |xxxxxxxxxxxxx |xxxxxxxxxxxxx |       1.0000 |       1.0000 |       1.0000 |       1.0000 |

Command list: 
	sslittle-na-sstrix-gcc -Wall -O3 -funroll-loops -finline-functions  -DRANDOM_SIZE=4096 -DSEED=0 -DSORT=base_heapsort base_heapsort2053701426.c simpleMain.c -o base_heapsort2145058356
	sim-cache -cache:dl1 dl1:256:32:1:l -cache:dl2 dl2:131072:32:1:l -cache:il1 il1:256:32:1:l -cache:il2 dl2 base_heapsort2145058356
	sim-cache -cache:dl1 dl1:256:32:1:l -cache:dl2 dl2:65536:32:1:l -cache:il1 il1:256:32:1:l -cache:il2 dl2 base_heapsort2145058356
	sim-cache -cache:dl1 dl1:1:32:256:l -cache:dl2 dl2:1:32:131072:l -cache:il1 il1:1:32:256:l -cache:il2 dl2 base_heapsort2145058356
	sim-cache -cache:dl1 dl1:1:32:256:l -cache:dl2 dl2:1:32:65536:l -cache:il1 il1:1:32:256:l -cache:il2 dl2 base_heapsort2145058356
	sim-bpred -bpred bimod -bpred:bimod 512 base_heapsort2145058356
	sim-bpred -bpred bimod -bpred:bimod 1024 base_heapsort2145058356
	sim-bpred -bpred bimod -bpred:bimod 2048 base_heapsort2145058356
	sim-bpred -bpred 2lev -bpred:2lev 1 512 10 1 base_heapsort2145058356
	sim-bpred -bpred 2lev -bpred:2lev 1 1024 10 1 base_heapsort2145058356
	sim-bpred -bpred 2lev -bpred:2lev 1 2048 10 1 base_heapsort2145058356
	sim-bpred -bpred 2lev -bpred:2lev 1 4096 10 1 base_heapsort2145058356
	sslittle-na-sstrix-gcc -Wall -O3 -funroll-loops -finline-functions  -DRANDOM_SIZE=8192 -DSEED=0 -DSORT=base_heapsort base_heapsort2053701426.c simpleMain.c -o base_heapsort2145058356
	sim-cache -cache:dl1 dl1:256:32:1:l -cache:dl2 dl2:131072:32:1:l -cache:il1 il1:256:32:1:l -cache:il2 dl2 base_heapsort2145058356
	sim-cache -cache:dl1 dl1:256:32:1:l -cache:dl2 dl2:65536:32:1:l -cache:il1 il1:256:32:1:l -cache:il2 dl2 base_heapsort2145058356
	sim-cache -cache:dl1 dl1:1:32:256:l -cache:dl2 dl2:1:32:131072:l -cache:il1 il1:1:32:256:l -cache:il2 dl2 base_heapsort2145058356
	sim-cache -cache:dl1 dl1:1:32:256:l -cache:dl2 dl2:1:32:65536:l -cache:il1 il1:1:32:256:l -cache:il2 dl2 base_heapsort2145058356
	sim-bpred -bpred bimod -bpred:bimod 512 base_heapsort2145058356
	sim-bpred -bpred bimod -bpred:bimod 1024 base_heapsort2145058356
	sim-bpred -bpred bimod -bpred:bimod 2048 base_heapsort2145058356
	sim-bpred -bpred 2lev -bpred:2lev 1 512 10 1 base_heapsort2145058356
	sim-bpred -bpred 2lev -bpred:2lev 1 1024 10 1 base_heapsort2145058356
	sim-bpred -bpred 2lev -bpred:2lev 1 2048 10 1 base_heapsort2145058356
	sim-bpred -bpred 2lev -bpred:2lev 1 4096 10 1 base_heapsort2145058356
	sslittle-na-sstrix-gcc -Wall -O3 -funroll-loops -finline-functions  -DRANDOM_SIZE=16384 -DSEED=0 -DSORT=base_heapsort base_heapsort2053701426.c simpleMain.c -o base_heapsort2145058356
	sim-cache -cache:dl1 dl1:256:32:1:l -cache:dl2 dl2:131072:32:1:l -cache:il1 il1:256:32:1:l -cache:il2 dl2 base_heapsort2145058356
	sim-cache -cache:dl1 dl1:256:32:1:l -cache:dl2 dl2:65536:32:1:l -cache:il1 il1:256:32:1:l -cache:il2 dl2 base_heapsort2145058356
	sim-cache -cache:dl1 dl1:1:32:256:l -cache:dl2 dl2:1:32:131072:l -cache:il1 il1:1:32:256:l -cache:il2 dl2 base_heapsort2145058356
	sim-cache -cache:dl1 dl1:1:32:256:l -cache:dl2 dl2:1:32:65536:l -cache:il1 il1:1:32:256:l -cache:il2 dl2 base_heapsort2145058356
	sim-bpred -bpred bimod -bpred:bimod 512 base_heapsort2145058356
	sim-bpred -bpred bimod -bpred:bimod 1024 base_heapsort2145058356
	sim-bpred -bpred bimod -bpred:bimod 2048 base_heapsort2145058356
	sim-bpred -bpred 2lev -bpred:2lev 1 512 10 1 base_heapsort2145058356
	sim-bpred -bpred 2lev -bpred:2lev 1 1024 10 1 base_heapsort2145058356
	sim-bpred -bpred 2lev -bpred:2lev 1 2048 10 1 base_heapsort2145058356
	sim-bpred -bpred 2lev -bpred:2lev 1 4096 10 1 base_heapsort2145058356
	sslittle-na-sstrix-gcc -Wall -O3 -funroll-loops -finline-functions  -DRANDOM_SIZE=32768 -DSEED=0 -DSORT=base_heapsort base_heapsort2053701426.c simpleMain.c -o base_heapsort2145058356
	sim-cache -cache:dl1 dl1:256:32:1:l -cache:dl2 dl2:131072:32:1:l -cache:il1 il1:256:32:1:l -cache:il2 dl2 base_heapsort2145058356
	sim-cache -cache:dl1 dl1:256:32:1:l -cache:dl2 dl2:65536:32:1:l -cache:il1 il1:256:32:1:l -cache:il2 dl2 base_heapsort2145058356
	sim-cache -cache:dl1 dl1:1:32:256:l -cache:dl2 dl2:1:32:131072:l -cache:il1 il1:1:32:256:l -cache:il2 dl2 base_heapsort2145058356
	sim-cache -cache:dl1 dl1:1:32:256:l -cache:dl2 dl2:1:32:65536:l -cache:il1 il1:1:32:256:l -cache:il2 dl2 base_heapsort2145058356
	sim-bpred -bpred bimod -bpred:bimod 512 base_heapsort2145058356
	sim-bpred -bpred bimod -bpred:bimod 1024 base_heapsort2145058356
	sim-bpred -bpred bimod -bpred:bimod 2048 base_heapsort2145058356
	sim-bpred -bpred 2lev -bpred:2lev 1 512 10 1 base_heapsort2145058356
	sim-bpred -bpred 2lev -bpred:2lev 1 1024 10 1 base_heapsort2145058356
	sim-bpred -bpred 2lev -bpred:2lev 1 2048 10 1 base_heapsort2145058356
	sim-bpred -bpred 2lev -bpred:2lev 1 4096 10 1 base_heapsort2145058356
	sslittle-na-sstrix-gcc -Wall -O3 -funroll-loops -finline-functions  -DRANDOM_SIZE=65536 -DSEED=0 -DSORT=base_heapsort base_heapsort2053701426.c simpleMain.c -o base_heapsort2145058356
	sim-cache -cache:dl1 dl1:256:32:1:l -cache:dl2 dl2:131072:32:1:l -cache:il1 il1:256:32:1:l -cache:il2 dl2 base_heapsort2145058356
	sim-cache -cache:dl1 dl1:256:32:1:l -cache:dl2 dl2:65536:32:1:l -cache:il1 il1:256:32:1:l -cache:il2 dl2 base_heapsort2145058356
	sim-cache -cache:dl1 dl1:1:32:256:l -cache:dl2 dl2:1:32:131072:l -cache:il1 il1:1:32:256:l -cache:il2 dl2 base_heapsort2145058356
	sim-cache -cache:dl1 dl1:1:32:256:l -cache:dl2 dl2:1:32:65536:l -cache:il1 il1:1:32:256:l -cache:il2 dl2 base_heapsort2145058356
	sim-bpred -bpred bimod -bpred:bimod 512 base_heapsort2145058356
	sim-bpred -bpred bimod -bpred:bimod 1024 base_heapsort2145058356
	sim-bpred -bpred bimod -bpred:bimod 2048 base_heapsort2145058356
	sim-bpred -bpred 2lev -bpred:2lev 1 512 10 1 base_heapsort2145058356
	sim-bpred -bpred 2lev -bpred:2lev 1 1024 10 1 base_heapsort2145058356
	sim-bpred -bpred 2lev -bpred:2lev 1 2048 10 1 base_heapsort2145058356
	sim-bpred -bpred 2lev -bpred:2lev 1 4096 10 1 base_heapsort2145058356
	sslittle-na-sstrix-gcc -Wall -O3 -funroll-loops -finline-functions  -DRANDOM_SIZE=131072 -DSEED=0 -DSORT=base_heapsort base_heapsort2053701426.c simpleMain.c -o base_heapsort2145058356
	sim-cache -cache:dl1 dl1:256:32:1:l -cache:dl2 dl2:131072:32:1:l -cache:il1 il1:256:32:1:l -cache:il2 dl2 base_heapsort2145058356
	sim-cache -cache:dl1 dl1:256:32:1:l -cache:dl2 dl2:65536:32:1:l -cache:il1 il1:256:32:1:l -cache:il2 dl2 base_heapsort2145058356
	sim-cache -cache:dl1 dl1:1:32:256:l -cache:dl2 dl2:1:32:131072:l -cache:il1 il1:1:32:256:l -cache:il2 dl2 base_heapsort2145058356
	sim-cache -cache:dl1 dl1:1:32:256:l -cache:dl2 dl2:1:32:65536:l -cache:il1 il1:1:32:256:l -cache:il2 dl2 base_heapsort2145058356
	sim-bpred -bpred bimod -bpred:bimod 512 base_heapsort2145058356
	sim-bpred -bpred bimod -bpred:bimod 1024 base_heapsort2145058356
	sim-bpred -bpred bimod -bpred:bimod 2048 base_heapsort2145058356
	sim-bpred -bpred 2lev -bpred:2lev 1 512 10 1 base_heapsort2145058356
	sim-bpred -bpred 2lev -bpred:2lev 1 1024 10 1 base_heapsort2145058356
	sim-bpred -bpred 2lev -bpred:2lev 1 2048 10 1 base_heapsort2145058356
	sim-bpred -bpred 2lev -bpred:2lev 1 4096 10 1 base_heapsort2145058356
	sslittle-na-sstrix-gcc -Wall -O3 -funroll-loops -finline-functions  -DRANDOM_SIZE=262144 -DSEED=0 -DSORT=base_heapsort base_heapsort2053701426.c simpleMain.c -o base_heapsort2145058356
	sim-cache -cache:dl1 dl1:256:32:1:l -cache:dl2 dl2:131072:32:1:l -cache:il1 il1:256:32:1:l -cache:il2 dl2 base_heapsort2145058356
	sim-cache -cache:dl1 dl1:256:32:1:l -cache:dl2 dl2:65536:32:1:l -cache:il1 il1:256:32:1:l -cache:il2 dl2 base_heapsort2145058356
	sim-cache -cache:dl1 dl1:1:32:256:l -cache:dl2 dl2:1:32:131072:l -cache:il1 il1:1:32:256:l -cache:il2 dl2 base_heapsort2145058356
	sim-cache -cache:dl1 dl1:1:32:256:l -cache:dl2 dl2:1:32:65536:l -cache:il1 il1:1:32:256:l -cache:il2 dl2 base_heapsort2145058356
	sim-bpred -bpred bimod -bpred:bimod 512 base_heapsort2145058356
	sim-bpred -bpred bimod -bpred:bimod 1024 base_heapsort2145058356
	sim-bpred -bpred bimod -bpred:bimod 2048 base_heapsort2145058356
	sim-bpred -bpred 2lev -bpred:2lev 1 512 10 1 base_heapsort2145058356
	sim-bpred -bpred 2lev -bpred:2lev 1 1024 10 1 base_heapsort2145058356
	sim-bpred -bpred 2lev -bpred:2lev 1 2048 10 1 base_heapsort2145058356
	sim-bpred -bpred 2lev -bpred:2lev 1 4096 10 1 base_heapsort2145058356
	sslittle-na-sstrix-gcc -Wall -O3 -funroll-loops -finline-functions  -DRANDOM_SIZE=524288 -DSEED=0 -DSORT=base_heapsort base_heapsort2053701426.c simpleMain.c -o base_heapsort2145058356
	sim-cache -cache:dl1 dl1:256:32:1:l -cache:dl2 dl2:131072:32:1:l -cache:il1 il1:256:32:1:l -cache:il2 dl2 base_heapsort2145058356
	sim-cache -cache:dl1 dl1:256:32:1:l -cache:dl2 dl2:65536:32:1:l -cache:il1 il1:256:32:1:l -cache:il2 dl2 base_heapsort2145058356
	sim-cache -cache:dl1 dl1:1:32:256:l -cache:dl2 dl2:1:32:131072:l -cache:il1 il1:1:32:256:l -cache:il2 dl2 base_heapsort2145058356
	sim-cache -cache:dl1 dl1:1:32:256:l -cache:dl2 dl2:1:32:65536:l -cache:il1 il1:1:32:256:l -cache:il2 dl2 base_heapsort2145058356
	sim-bpred -bpred bimod -bpred:bimod 512 base_heapsort2145058356
	sim-bpred -bpred bimod -bpred:bimod 1024 base_heapsort2145058356
	sim-bpred -bpred bimod -bpred:bimod 2048 base_heapsort2145058356
	sim-bpred -bpred 2lev -bpred:2lev 1 512 10 1 base_heapsort2145058356
	sim-bpred -bpred 2lev -bpred:2lev 1 1024 10 1 base_heapsort2145058356
	sim-bpred -bpred 2lev -bpred:2lev 1 2048 10 1 base_heapsort2145058356
	sim-bpred -bpred 2lev -bpred:2lev 1 4096 10 1 base_heapsort2145058356
	sslittle-na-sstrix-gcc -Wall -O3 -funroll-loops -finline-functions  -DRANDOM_SIZE=1048576 -DSEED=0 -DSORT=base_heapsort base_heapsort2053701426.c simpleMain.c -o base_heapsort2145058356
	sim-cache -cache:dl1 dl1:256:32:1:l -cache:dl2 dl2:131072:32:1:l -cache:il1 il1:256:32:1:l -cache:il2 dl2 base_heapsort2145058356
	sim-cache -cache:dl1 dl1:256:32:1:l -cache:dl2 dl2:65536:32:1:l -cache:il1 il1:256:32:1:l -cache:il2 dl2 base_heapsort2145058356
	sim-cache -cache:dl1 dl1:1:32:256:l -cache:dl2 dl2:1:32:131072:l -cache:il1 il1:1:32:256:l -cache:il2 dl2 base_heapsort2145058356
	sim-cache -cache:dl1 dl1:1:32:256:l -cache:dl2 dl2:1:32:65536:l -cache:il1 il1:1:32:256:l -cache:il2 dl2 base_heapsort2145058356
	sim-bpred -bpred bimod -bpred:bimod 512 base_heapsort2145058356
	sim-bpred -bpred bimod -bpred:bimod 1024 base_heapsort2145058356
	sim-bpred -bpred bimod -bpred:bimod 2048 base_heapsort2145058356
	sim-bpred -bpred 2lev -bpred:2lev 1 512 10 1 base_heapsort2145058356
	sim-bpred -bpred 2lev -bpred:2lev 1 1024 10 1 base_heapsort2145058356
	sim-bpred -bpred 2lev -bpred:2lev 1 2048 10 1 base_heapsort2145058356
	sim-bpred -bpred 2lev -bpred:2lev 1 4096 10 1 base_heapsort2145058356
	sslittle-na-sstrix-gcc -Wall -O3 -funroll-loops -finline-functions  -DRANDOM_SIZE=2097152 -DSEED=0 -DSORT=base_heapsort base_heapsort2053701426.c simpleMain.c -o base_heapsort2145058356
	sim-cache -cache:dl1 dl1:256:32:1:l -cache:dl2 dl2:131072:32:1:l -cache:il1 il1:256:32:1:l -cache:il2 dl2 base_heapsort2145058356
	sim-cache -cache:dl1 dl1:256:32:1:l -cache:dl2 dl2:65536:32:1:l -cache:il1 il1:256:32:1:l -cache:il2 dl2 base_heapsort2145058356
	sim-cache -cache:dl1 dl1:1:32:256:l -cache:dl2 dl2:1:32:131072:l -cache:il1 il1:1:32:256:l -cache:il2 dl2 base_heapsort2145058356
	sim-cache -cache:dl1 dl1:1:32:256:l -cache:dl2 dl2:1:32:65536:l -cache:il1 il1:1:32:256:l -cache:il2 dl2 base_heapsort2145058356
	sim-bpred -bpred bimod -bpred:bimod 512 base_heapsort2145058356
	sim-bpred -bpred bimod -bpred:bimod 1024 base_heapsort2145058356
	sim-bpred -bpred bimod -bpred:bimod 2048 base_heapsort2145058356
	sim-bpred -bpred 2lev -bpred:2lev 1 512 10 1 base_heapsort2145058356
	sim-bpred -bpred 2lev -bpred:2lev 1 1024 10 1 base_heapsort2145058356
	sim-bpred -bpred 2lev -bpred:2lev 1 2048 10 1 base_heapsort2145058356
	sim-bpred -bpred 2lev -bpred:2lev 1 4096 10 1 base_heapsort2145058356
	sslittle-na-sstrix-gcc -Wall -O3 -funroll-loops -finline-functions  -DRANDOM_SIZE=4194304 -DSEED=0 -DSORT=base_heapsort base_heapsort2053701426.c simpleMain.c -o base_heapsort2145058356
	sim-cache -cache:dl1 dl1:256:32:1:l -cache:dl2 dl2:131072:32:1:l -cache:il1 il1:256:32:1:l -cache:il2 dl2 base_heapsort2145058356
	sim-cache -cache:dl1 dl1:256:32:1:l -cache:dl2 dl2:65536:32:1:l -cache:il1 il1:256:32:1:l -cache:il2 dl2 base_heapsort2145058356
	sim-cache -cache:dl1 dl1:1:32:256:l -cache:dl2 dl2:1:32:131072:l -cache:il1 il1:1:32:256:l -cache:il2 dl2 base_heapsort2145058356
	sim-cache -cache:dl1 dl1:1:32:256:l -cache:dl2 dl2:1:32:65536:l -cache:il1 il1:1:32:256:l -cache:il2 dl2 base_heapsort2145058356
	sim-bpred -bpred bimod -bpred:bimod 512 base_heapsort2145058356
	sim-bpred -bpred bimod -bpred:bimod 1024 base_heapsort2145058356
	sim-bpred -bpred bimod -bpred:bimod 2048 base_heapsort2145058356
	sim-bpred -bpred 2lev -bpred:2lev 1 512 10 1 base_heapsort2145058356
	sim-bpred -bpred 2lev -bpred:2lev 1 1024 10 1 base_heapsort2145058356
	sim-bpred -bpred 2lev -bpred:2lev 1 2048 10 1 base_heapsort2145058356
	sim-bpred -bpred 2lev -bpred:2lev 1 4096 10 1 base_heapsort2145058356
