Thu Mar 25 05:47:32 2004
Run as: "./simple -c  cache_quicksort"
-------------------------------------------------------------------------------------------------
sim-cache                                     4096 |         4096 |         4096 |         4096 |         8192 |         8192 |         8192 |         8192 |        16384 |        16384 |        16384 |        16384 |        32768 |        32768 |        32768 |        32768 |        65536 |        65536 |        65536 |        65536 |       131072 |       131072 |       131072 |       131072 |       262144 |       262144 |       262144 |       262144 |       524288 |       524288 |       524288 |       524288 |      1048576 |      1048576 |      1048576 |      1048576 |      2097152 |      2097152 |      2097152 |      2097152 |      4194304 |      4194304 |      4194304 |      4194304 |
-cache:dl1 dl1:256:32:1:l -cache:dl2 dl2:131072:32:1:l -cache:il1 il1:256:32:1:l -cache:il2 dl2
-cache:dl1 dl1:256:32:1:l -cache:dl2 dl2:65536:32:1:l -cache:il1 il1:256:32:1:l -cache:il2 dl2
-cache:dl1 dl1:1:32:256:l -cache:dl2 dl2:1:32:131072:l -cache:il1 il1:1:32:256:l -cache:il2 dl2
-cache:dl1 dl1:1:32:256:l -cache:dl2 dl2:1:32:65536:l -cache:il1 il1:1:32:256:l -cache:il2 dl2
-------------------------------------------------------------------------------------------------
sim_num_insn                                608719 |       608719 |       608719 |       608719 |      1283676 |      1283676 |      1283676 |      1283676 |      2674542 |      2674542 |      2674542 |      2674542 |      5602639 |      5602639 |      5602639 |      5602639 |     11799667 |     11799667 |     11799667 |     11799667 |     25099519 |     25099519 |     25099519 |     25099519 |     51884483 |     51884483 |     51884483 |     51884483 |    110070007 |    110070007 |    110070007 |    110070007 |    227646852 |    227646852 |    227646852 |    227646852 |    475293323 |    475293323 |    475293323 |    475293323 |    980888025 |    980888025 |    980888025 |    980888025 |
sim_num_refs                                188043 |       188043 |       188043 |       188043 |       386062 |       386062 |       386062 |       386062 |       793332 |       793332 |       793332 |       793332 |      1645253 |      1645253 |      1645253 |      1645253 |      3424285 |      3424285 |      3424285 |      3424285 |      7166940 |      7166940 |      7166940 |      7166940 |     14786794 |     14786794 |     14786794 |     14786794 |     30885562 |     30885562 |     30885562 |     30885562 |     63692166 |     63692166 |     63692166 |     63692166 |    131953965 |    131953965 |    131953965 |    131953965 |    271640321 |    271640321 |    271640321 |    271640321 |
sim_elapsed_time                                 1 |            1 |           15 |            7 |            1 |            1 |           21 |           11 |            2 |            1 |           32 |           17 |            3 |            4 |           55 |           29 |            7 |            7 |          101 |           53 |           14 |           14 |          188 |           95 |           29 |           29 |          345 |          166 |           62 |           62 |          587 |          242 |          126 |          126 |          838 |          311 |          262 |          262 |          980 |          459 |          538 |          537 |         1276 |          753 |
sim_inst_rate                          608719.0000 |  608719.0000 |   40581.2667 |   86959.8571 | 1283676.0000 | 1283676.0000 |   61127.4286 |  116697.8182 | 1337271.0000 | 2674542.0000 |   83579.4375 |  157326.0000 | 1867546.3333 | 1400659.7500 |  101866.1636 |  193194.4483 | 1685666.7143 | 1685666.7143 |  116828.3861 |  222635.2264 | 1792822.7857 | 1792822.7857 |  133508.0798 |  264205.4632 | 1789120.1034 | 1789120.1034 |  150389.8058 |  312557.1265 | 1775322.6935 | 1775322.6935 |  187512.7888 |  454834.7397 | 1806721.0476 | 1806721.0476 |  271654.9547 |  731983.4469 | 1814096.6527 | 1814096.6527 |  484993.1867 | 1035497.4357 | 1823211.9424 | 1826607.1229 |  768721.0227 | 1302640.1394 |
il1.accesses                                608719 |       608719 |       608719 |       608719 |      1283676 |      1283676 |      1283676 |      1283676 |      2674542 |      2674542 |      2674542 |      2674542 |      5602639 |      5602639 |      5602639 |      5602639 |     11799667 |     11799667 |     11799667 |     11799667 |     25099519 |     25099519 |     25099519 |     25099519 |     51884483 |     51884483 |     51884483 |     51884483 |    110070007 |    110070007 |    110070007 |    110070007 |    227646852 |    227646852 |    227646852 |    227646852 |    475293323 |    475293323 |    475293323 |    475293323 |    980888025 |    980888025 |    980888025 |    980888025 |
il1.hits                                    608193 |       608193 |       608283 |       608283 |      1283150 |      1283150 |      1283239 |      1283239 |      2674025 |      2674025 |      2674109 |      2674109 |      5602127 |      5602127 |      5602212 |      5602212 |     11799151 |     11799151 |     11799236 |     11799236 |     25099007 |     25099007 |     25099092 |     25099092 |     51883967 |     51883967 |     51884052 |     51884052 |    110069504 |    110069504 |    110069599 |    110069599 |    227646334 |    227646334 |    227646419 |    227646419 |    475292807 |    475292807 |    475292892 |    475292892 |    980887515 |    980887515 |    980887600 |    980887600 |
il1.misses                                     526 |          526 |          436 |          436 |          526 |          526 |          437 |          437 |          517 |          517 |          433 |          433 |          512 |          512 |          427 |          427 |          516 |          516 |          431 |          431 |          512 |          512 |          427 |          427 |          516 |          516 |          431 |          431 |          503 |          503 |          408 |          408 |          518 |          518 |          433 |          433 |          516 |          516 |          431 |          431 |          510 |          510 |          425 |          425 |
il1.replacements                               297 |          297 |          180 |          180 |          297 |          297 |          181 |          181 |          286 |          286 |          177 |          177 |          283 |          283 |          171 |          171 |          285 |          285 |          175 |          175 |          283 |          283 |          171 |          171 |          285 |          285 |          175 |          175 |          276 |          276 |          152 |          152 |          287 |          287 |          177 |          177 |          285 |          285 |          175 |          175 |          281 |          281 |          169 |          169 |
il1.writebacks                                   0 |            0 |            0 |            0 |            0 |            0 |            0 |            0 |            0 |            0 |            0 |            0 |            0 |            0 |            0 |            0 |            0 |            0 |            0 |            0 |            0 |            0 |            0 |            0 |            0 |            0 |            0 |            0 |            0 |            0 |            0 |            0 |            0 |            0 |            0 |            0 |            0 |            0 |            0 |            0 |            0 |            0 |            0 |            0 |
il1.invalidations                                0 |            0 |            0 |            0 |            0 |            0 |            0 |            0 |            0 |            0 |            0 |            0 |            0 |            0 |            0 |            0 |            0 |            0 |            0 |            0 |            0 |            0 |            0 |            0 |            0 |            0 |            0 |            0 |            0 |            0 |            0 |            0 |            0 |            0 |            0 |            0 |            0 |            0 |            0 |            0 |            0 |            0 |            0 |            0 |
il1.miss_rate                               0.0009 |       0.0009 |       0.0007 |       0.0007 |       0.0004 |       0.0004 |       0.0003 |       0.0003 |       0.0002 |       0.0002 |       0.0002 |       0.0002 |       0.0001 |       0.0001 |       0.0001 |       0.0001 |       0.0000 |       0.0000 |       0.0000 |       0.0000 |       0.0000 |       0.0000 |       0.0000 |       0.0000 |       0.0000 |       0.0000 |       0.0000 |       0.0000 |       0.0000 |       0.0000 |       0.0000 |       0.0000 |       0.0000 |       0.0000 |       0.0000 |       0.0000 |       0.0000 |       0.0000 |       0.0000 |       0.0000 |       0.0000 |       0.0000 |       0.0000 |       0.0000 |
il1.repl_rate                               0.0005 |       0.0005 |       0.0003 |       0.0003 |       0.0002 |       0.0002 |       0.0001 |       0.0001 |       0.0001 |       0.0001 |       0.0001 |       0.0001 |       0.0001 |       0.0001 |       0.0000 |       0.0000 |       0.0000 |       0.0000 |       0.0000 |       0.0000 |       0.0000 |       0.0000 |       0.0000 |       0.0000 |       0.0000 |       0.0000 |       0.0000 |       0.0000 |       0.0000 |       0.0000 |       0.0000 |       0.0000 |       0.0000 |       0.0000 |       0.0000 |       0.0000 |       0.0000 |       0.0000 |       0.0000 |       0.0000 |       0.0000 |       0.0000 |       0.0000 |       0.0000 |
il1.wb_rate                                 0.0000 |       0.0000 |       0.0000 |       0.0000 |       0.0000 |       0.0000 |       0.0000 |       0.0000 |       0.0000 |       0.0000 |       0.0000 |       0.0000 |       0.0000 |       0.0000 |       0.0000 |       0.0000 |       0.0000 |       0.0000 |       0.0000 |       0.0000 |       0.0000 |       0.0000 |       0.0000 |       0.0000 |       0.0000 |       0.0000 |       0.0000 |       0.0000 |       0.0000 |       0.0000 |       0.0000 |       0.0000 |       0.0000 |       0.0000 |       0.0000 |       0.0000 |       0.0000 |       0.0000 |       0.0000 |       0.0000 |       0.0000 |       0.0000 |       0.0000 |       0.0000 |
il1.inv_rate                                0.0000 |       0.0000 |       0.0000 |       0.0000 |       0.0000 |       0.0000 |       0.0000 |       0.0000 |       0.0000 |       0.0000 |       0.0000 |       0.0000 |       0.0000 |       0.0000 |       0.0000 |       0.0000 |       0.0000 |       0.0000 |       0.0000 |       0.0000 |       0.0000 |       0.0000 |       0.0000 |       0.0000 |       0.0000 |       0.0000 |       0.0000 |       0.0000 |       0.0000 |       0.0000 |       0.0000 |       0.0000 |       0.0000 |       0.0000 |       0.0000 |       0.0000 |       0.0000 |       0.0000 |       0.0000 |       0.0000 |       0.0000 |       0.0000 |       0.0000 |       0.0000 |
dl1.accesses                                188113 |       188113 |       188113 |       188113 |       386132 |       386132 |       386132 |       386132 |       793402 |       793402 |       793402 |       793402 |      1645323 |      1645323 |      1645323 |      1645323 |      3424355 |      3424355 |      3424355 |      3424355 |      7167010 |      7167010 |      7167010 |      7167010 |     14786864 |     14786864 |     14786864 |     14786864 |     30885632 |     30885632 |     30885632 |     30885632 |     63692236 |     63692236 |     63692236 |     63692236 |    131954035 |    131954035 |    131954035 |    131954035 |    271640391 |    271640391 |    271640391 |    271640391 |
dl1.hits                                    185774 |       185774 |       185805 |       185805 |       380406 |       380406 |       380676 |       380676 |       780588 |       780588 |       781046 |       781046 |      1616784 |      1616784 |      1617987 |      1617987 |      3357207 |      3357207 |      3360156 |      3360156 |      7006147 |      7006147 |      7012038 |      7012038 |     14440218 |     14440218 |     14453492 |     14453492 |     30083580 |     30083580 |     30110280 |     30110280 |     61984226 |     61984226 |     62041486 |     62041486 |    128199582 |    128199582 |    128320859 |    128320859 |    263693908 |    263693908 |    263952422 |    263952422 |
dl1.misses                                    2339 |         2339 |         2308 |         2308 |         5726 |         5726 |         5456 |         5456 |        12814 |        12814 |        12356 |        12356 |        28539 |        28539 |        27336 |        27336 |        67148 |        67148 |        64199 |        64199 |       160863 |       160863 |       154972 |       154972 |       346646 |       346646 |       333372 |       333372 |       802052 |       802052 |       775352 |       775352 |      1708010 |      1708010 |      1650750 |      1650750 |      3754453 |      3754453 |      3633176 |      3633176 |      7946483 |      7946483 |      7687969 |      7687969 |
dl1.replacements                              2083 |         2083 |         2052 |         2052 |         5470 |         5470 |         5200 |         5200 |        12558 |        12558 |        12100 |        12100 |        28283 |        28283 |        27080 |        27080 |        66892 |        66892 |        63943 |        63943 |       160607 |       160607 |       154716 |       154716 |       346390 |       346390 |       333116 |       333116 |       801796 |       801796 |       775096 |       775096 |      1707754 |      1707754 |      1650494 |      1650494 |      3754197 |      3754197 |      3632920 |      3632920 |      7946227 |      7946227 |      7687713 |      7687713 |
dl1.writebacks                                1964 |         1964 |         1905 |         1905 |         4941 |         4941 |         4741 |         4741 |        11795 |        11795 |        11521 |        11521 |        26918 |        26918 |        26096 |        26096 |        62942 |        62942 |        60952 |        60952 |       145262 |       145262 |       141602 |       141602 |       322134 |       322134 |       313899 |       313899 |       723743 |       723743 |       707903 |       707903 |      1577331 |      1577331 |      1543513 |      1543513 |      3445705 |      3445705 |      3375864 |      3375864 |      7384446 |      7384446 |      7237057 |      7237057 |
dl1.invalidations                                0 |            0 |            0 |            0 |            0 |            0 |            0 |            0 |            0 |            0 |            0 |            0 |            0 |            0 |            0 |            0 |            0 |            0 |            0 |            0 |            0 |            0 |            0 |            0 |            0 |            0 |            0 |            0 |            0 |            0 |            0 |            0 |            0 |            0 |            0 |            0 |            0 |            0 |            0 |            0 |            0 |            0 |            0 |            0 |
dl1.miss_rate                               0.0124 |       0.0124 |       0.0123 |       0.0123 |       0.0148 |       0.0148 |       0.0141 |       0.0141 |       0.0162 |       0.0162 |       0.0156 |       0.0156 |       0.0173 |       0.0173 |       0.0166 |       0.0166 |       0.0196 |       0.0196 |       0.0187 |       0.0187 |       0.0224 |       0.0224 |       0.0216 |       0.0216 |       0.0234 |       0.0234 |       0.0225 |       0.0225 |       0.0260 |       0.0260 |       0.0251 |       0.0251 |       0.0268 |       0.0268 |       0.0259 |       0.0259 |       0.0285 |       0.0285 |       0.0275 |       0.0275 |       0.0293 |       0.0293 |       0.0283 |       0.0283 |
dl1.repl_rate                               0.0111 |       0.0111 |       0.0109 |       0.0109 |       0.0142 |       0.0142 |       0.0135 |       0.0135 |       0.0158 |       0.0158 |       0.0153 |       0.0153 |       0.0172 |       0.0172 |       0.0165 |       0.0165 |       0.0195 |       0.0195 |       0.0187 |       0.0187 |       0.0224 |       0.0224 |       0.0216 |       0.0216 |       0.0234 |       0.0234 |       0.0225 |       0.0225 |       0.0260 |       0.0260 |       0.0251 |       0.0251 |       0.0268 |       0.0268 |       0.0259 |       0.0259 |       0.0285 |       0.0285 |       0.0275 |       0.0275 |       0.0293 |       0.0293 |       0.0283 |       0.0283 |
dl1.wb_rate                                 0.0104 |       0.0104 |       0.0101 |       0.0101 |       0.0128 |       0.0128 |       0.0123 |       0.0123 |       0.0149 |       0.0149 |       0.0145 |       0.0145 |       0.0164 |       0.0164 |       0.0159 |       0.0159 |       0.0184 |       0.0184 |       0.0178 |       0.0178 |       0.0203 |       0.0203 |       0.0198 |       0.0198 |       0.0218 |       0.0218 |       0.0212 |       0.0212 |       0.0234 |       0.0234 |       0.0229 |       0.0229 |       0.0248 |       0.0248 |       0.0242 |       0.0242 |       0.0261 |       0.0261 |       0.0256 |       0.0256 |       0.0272 |       0.0272 |       0.0266 |       0.0266 |
dl1.inv_rate                                0.0000 |       0.0000 |       0.0000 |       0.0000 |       0.0000 |       0.0000 |       0.0000 |       0.0000 |       0.0000 |       0.0000 |       0.0000 |       0.0000 |       0.0000 |       0.0000 |       0.0000 |       0.0000 |       0.0000 |       0.0000 |       0.0000 |       0.0000 |       0.0000 |       0.0000 |       0.0000 |       0.0000 |       0.0000 |       0.0000 |       0.0000 |       0.0000 |       0.0000 |       0.0000 |       0.0000 |       0.0000 |       0.0000 |       0.0000 |       0.0000 |       0.0000 |       0.0000 |       0.0000 |       0.0000 |       0.0000 |       0.0000 |       0.0000 |       0.0000 |       0.0000 |
dl2.accesses                                  4829 |         4829 |         4649 |         4649 |        11193 |        11193 |        10634 |        10634 |        25126 |        25126 |        24310 |        24310 |        55969 |        55969 |        53859 |        53859 |       130606 |       130606 |       125582 |       125582 |       306637 |       306637 |       297001 |       297001 |       669296 |       669296 |       647702 |       647702 |      1526298 |      1526298 |      1483663 |      1483663 |      3285859 |      3285859 |      3194696 |      3194696 |      7200674 |      7200674 |      7009471 |      7009471 |     15331439 |     15331439 |     14925451 |     14925451 |
dl2.hits                                      3436 |         3436 |         3277 |         3277 |         9287 |         9287 |         8749 |         8749 |        22205 |        22205 |        21412 |        21412 |        51006 |        51006 |        48919 |        48919 |       121541 |       121541 |       116541 |       116541 |       289385 |       289385 |       279772 |       279772 |       635655 |       635655 |       614085 |       614085 |      1459909 |      1459183 |      1417291 |      1361549 |      3153188 |      2941261 |      2946219 |      2795475 |      6513790 |      6218927 |      6251362 |      5970553 |     13411584 |     12814173 |     12894240 |     12221250 |
dl2.misses                                    1393 |         1393 |         1372 |         1372 |         1906 |         1906 |         1885 |         1885 |         2921 |         2921 |         2898 |         2898 |         4963 |         4963 |         4940 |         4940 |         9065 |         9065 |         9041 |         9041 |        17252 |        17252 |        17229 |        17229 |        33641 |        33641 |        33617 |        33617 |        66389 |        67115 |        66372 |       122114 |       132671 |       344598 |       248477 |       399221 |       686884 |       981747 |       758109 |      1038918 |      1919855 |      2517266 |      2031211 |      2704201 |
dl2.replacements                               251 |          251 |            0 |            0 |          253 |          253 |            0 |            0 |          254 |          254 |            0 |            0 |          248 |          248 |            0 |            0 |          252 |          252 |            0 |            0 |          248 |          248 |            0 |            0 |          252 |          252 |            0 |            0 |          234 |         1579 |            0 |        56578 |         1599 |       279062 |       117405 |       333685 |       555812 |       916211 |       627037 |       973382 |      1788783 |      2451730 |      1900139 |      2638665 |
dl2.writebacks                                 164 |          164 |            0 |            0 |          166 |          166 |            0 |            0 |          167 |          167 |            0 |            0 |          160 |          160 |            0 |            0 |          163 |          163 |            0 |            0 |          160 |          160 |            0 |            0 |          163 |          163 |            0 |            0 |          155 |         1319 |            0 |        56341 |         1327 |       275094 |       117168 |       326045 |       551535 |       904305 |       618716 |       960345 |      1775680 |      2425278 |      1885144 |      2600179 |
dl2.invalidations                                0 |            0 |            0 |            0 |            0 |            0 |            0 |            0 |            0 |            0 |            0 |            0 |            0 |            0 |            0 |            0 |            0 |            0 |            0 |            0 |            0 |            0 |            0 |            0 |            0 |            0 |            0 |            0 |            0 |            0 |            0 |            0 |            0 |            0 |            0 |            0 |            0 |            0 |            0 |            0 |            0 |            0 |            0 |            0 |
dl2.miss_rate                               0.2885 |       0.2885 |       0.2951 |       0.2951 |       0.1703 |       0.1703 |       0.1773 |       0.1773 |       0.1163 |       0.1163 |       0.1192 |       0.1192 |       0.0887 |       0.0887 |       0.0917 |       0.0917 |       0.0694 |       0.0694 |       0.0720 |       0.0720 |       0.0563 |       0.0563 |       0.0580 |       0.0580 |       0.0503 |       0.0503 |       0.0519 |       0.0519 |       0.0435 |       0.0440 |       0.0447 |       0.0823 |       0.0404 |       0.1049 |       0.0778 |       0.1250 |       0.0954 |       0.1363 |       0.1082 |       0.1482 |       0.1252 |       0.1642 |       0.1361 |       0.1812 |
dl2.repl_rate                               0.0520 |       0.0520 |       0.0000 |       0.0000 |       0.0226 |       0.0226 |       0.0000 |       0.0000 |       0.0101 |       0.0101 |       0.0000 |       0.0000 |       0.0044 |       0.0044 |       0.0000 |       0.0000 |       0.0019 |       0.0019 |       0.0000 |       0.0000 |       0.0008 |       0.0008 |       0.0000 |       0.0000 |       0.0004 |       0.0004 |       0.0000 |       0.0000 |       0.0002 |       0.0010 |       0.0000 |       0.0381 |       0.0005 |       0.0849 |       0.0367 |       0.1044 |       0.0772 |       0.1272 |       0.0895 |       0.1389 |       0.1167 |       0.1599 |       0.1273 |       0.1768 |
dl2.wb_rate                                 0.0340 |       0.0340 |       0.0000 |       0.0000 |       0.0148 |       0.0148 |       0.0000 |       0.0000 |       0.0066 |       0.0066 |       0.0000 |       0.0000 |       0.0029 |       0.0029 |       0.0000 |       0.0000 |       0.0012 |       0.0012 |       0.0000 |       0.0000 |       0.0005 |       0.0005 |       0.0000 |       0.0000 |       0.0002 |       0.0002 |       0.0000 |       0.0000 |       0.0001 |       0.0009 |       0.0000 |       0.0380 |       0.0004 |       0.0837 |       0.0367 |       0.1021 |       0.0766 |       0.1256 |       0.0883 |       0.1370 |       0.1158 |       0.1582 |       0.1263 |       0.1742 |
dl2.inv_rate                                0.0000 |       0.0000 |       0.0000 |       0.0000 |       0.0000 |       0.0000 |       0.0000 |       0.0000 |       0.0000 |       0.0000 |       0.0000 |       0.0000 |       0.0000 |       0.0000 |       0.0000 |       0.0000 |       0.0000 |       0.0000 |       0.0000 |       0.0000 |       0.0000 |       0.0000 |       0.0000 |       0.0000 |       0.0000 |       0.0000 |       0.0000 |       0.0000 |       0.0000 |       0.0000 |       0.0000 |       0.0000 |       0.0000 |       0.0000 |       0.0000 |       0.0000 |       0.0000 |       0.0000 |       0.0000 |       0.0000 |       0.0000 |       0.0000 |       0.0000 |       0.0000 |
itlb.accesses                               608719 |       608719 |       608719 |       608719 |      1283676 |      1283676 |      1283676 |      1283676 |      2674542 |      2674542 |      2674542 |      2674542 |      5602639 |      5602639 |      5602639 |      5602639 |     11799667 |     11799667 |     11799667 |     11799667 |     25099519 |     25099519 |     25099519 |     25099519 |     51884483 |     51884483 |     51884483 |     51884483 |    110070007 |    110070007 |    110070007 |    110070007 |    227646852 |    227646852 |    227646852 |    227646852 |    475293323 |    475293323 |    475293323 |    475293323 |    980888025 |    980888025 |    980888025 |    980888025 |
itlb.hits                                   608712 |       608712 |       608712 |       608712 |      1283669 |      1283669 |      1283669 |      1283669 |      2674535 |      2674535 |      2674535 |      2674535 |      5602632 |      5602632 |      5602632 |      5602632 |     11799660 |     11799660 |     11799660 |     11799660 |     25099512 |     25099512 |     25099512 |     25099512 |     51884476 |     51884476 |     51884476 |     51884476 |    110070000 |    110070000 |    110070000 |    110070000 |    227646845 |    227646845 |    227646845 |    227646845 |    475293316 |    475293316 |    475293316 |    475293316 |    980888018 |    980888018 |    980888018 |    980888018 |
itlb.misses                                      7 |            7 |            7 |            7 |            7 |            7 |            7 |            7 |            7 |            7 |            7 |            7 |            7 |            7 |            7 |            7 |            7 |            7 |            7 |            7 |            7 |            7 |            7 |            7 |            7 |            7 |            7 |            7 |            7 |            7 |            7 |            7 |            7 |            7 |            7 |            7 |            7 |            7 |            7 |            7 |            7 |            7 |            7 |            7 |
itlb.replacements                                0 |            0 |            0 |            0 |            0 |            0 |            0 |            0 |            0 |            0 |            0 |            0 |            0 |            0 |            0 |            0 |            0 |            0 |            0 |            0 |            0 |            0 |            0 |            0 |            0 |            0 |            0 |            0 |            0 |            0 |            0 |            0 |            0 |            0 |            0 |            0 |            0 |            0 |            0 |            0 |            0 |            0 |            0 |            0 |
itlb.writebacks                                  0 |            0 |            0 |            0 |            0 |            0 |            0 |            0 |            0 |            0 |            0 |            0 |            0 |            0 |            0 |            0 |            0 |            0 |            0 |            0 |            0 |            0 |            0 |            0 |            0 |            0 |            0 |            0 |            0 |            0 |            0 |            0 |            0 |            0 |            0 |            0 |            0 |            0 |            0 |            0 |            0 |            0 |            0 |            0 |
itlb.invalidations                               0 |            0 |            0 |            0 |            0 |            0 |            0 |            0 |            0 |            0 |            0 |            0 |            0 |            0 |            0 |            0 |            0 |            0 |            0 |            0 |            0 |            0 |            0 |            0 |            0 |            0 |            0 |            0 |            0 |            0 |            0 |            0 |            0 |            0 |            0 |            0 |            0 |            0 |            0 |            0 |            0 |            0 |            0 |            0 |
itlb.miss_rate                              0.0000 |       0.0000 |       0.0000 |       0.0000 |       0.0000 |       0.0000 |       0.0000 |       0.0000 |       0.0000 |       0.0000 |       0.0000 |       0.0000 |       0.0000 |       0.0000 |       0.0000 |       0.0000 |       0.0000 |       0.0000 |       0.0000 |       0.0000 |       0.0000 |       0.0000 |       0.0000 |       0.0000 |       0.0000 |       0.0000 |       0.0000 |       0.0000 |       0.0000 |       0.0000 |       0.0000 |       0.0000 |       0.0000 |       0.0000 |       0.0000 |       0.0000 |       0.0000 |       0.0000 |       0.0000 |       0.0000 |       0.0000 |       0.0000 |       0.0000 |       0.0000 |
itlb.repl_rate                              0.0000 |       0.0000 |       0.0000 |       0.0000 |       0.0000 |       0.0000 |       0.0000 |       0.0000 |       0.0000 |       0.0000 |       0.0000 |       0.0000 |       0.0000 |       0.0000 |       0.0000 |       0.0000 |       0.0000 |       0.0000 |       0.0000 |       0.0000 |       0.0000 |       0.0000 |       0.0000 |       0.0000 |       0.0000 |       0.0000 |       0.0000 |       0.0000 |       0.0000 |       0.0000 |       0.0000 |       0.0000 |       0.0000 |       0.0000 |       0.0000 |       0.0000 |       0.0000 |       0.0000 |       0.0000 |       0.0000 |       0.0000 |       0.0000 |       0.0000 |       0.0000 |
itlb.wb_rate                                0.0000 |       0.0000 |       0.0000 |       0.0000 |       0.0000 |       0.0000 |       0.0000 |       0.0000 |       0.0000 |       0.0000 |       0.0000 |       0.0000 |       0.0000 |       0.0000 |       0.0000 |       0.0000 |       0.0000 |       0.0000 |       0.0000 |       0.0000 |       0.0000 |       0.0000 |       0.0000 |       0.0000 |       0.0000 |       0.0000 |       0.0000 |       0.0000 |       0.0000 |       0.0000 |       0.0000 |       0.0000 |       0.0000 |       0.0000 |       0.0000 |       0.0000 |       0.0000 |       0.0000 |       0.0000 |       0.0000 |       0.0000 |       0.0000 |       0.0000 |       0.0000 |
itlb.inv_rate                               0.0000 |       0.0000 |       0.0000 |       0.0000 |       0.0000 |       0.0000 |       0.0000 |       0.0000 |       0.0000 |       0.0000 |       0.0000 |       0.0000 |       0.0000 |       0.0000 |       0.0000 |       0.0000 |       0.0000 |       0.0000 |       0.0000 |       0.0000 |       0.0000 |       0.0000 |       0.0000 |       0.0000 |       0.0000 |       0.0000 |       0.0000 |       0.0000 |       0.0000 |       0.0000 |       0.0000 |       0.0000 |       0.0000 |       0.0000 |       0.0000 |       0.0000 |       0.0000 |       0.0000 |       0.0000 |       0.0000 |       0.0000 |       0.0000 |       0.0000 |       0.0000 |
dtlb.accesses                               188113 |       188113 |       188113 |       188113 |       386132 |       386132 |       386132 |       386132 |       793402 |       793402 |       793402 |       793402 |      1645323 |      1645323 |      1645323 |      1645323 |      3424355 |      3424355 |      3424355 |      3424355 |      7167010 |      7167010 |      7167010 |      7167010 |     14786864 |     14786864 |     14786864 |     14786864 |     30885632 |     30885632 |     30885632 |     30885632 |     63692236 |     63692236 |     63692236 |     63692236 |    131954035 |    131954035 |    131954035 |    131954035 |    271640391 |    271640391 |    271640391 |    271640391 |
dtlb.hits                                   188102 |       188102 |       188102 |       188102 |       386117 |       386117 |       386117 |       386117 |       793379 |       793379 |       793379 |       793379 |      1645284 |      1645284 |      1645284 |      1645284 |      3424284 |      3424284 |      3424284 |      3424284 |      7166850 |      7166850 |      7166850 |      7166850 |     14786111 |     14786111 |     14786111 |     14786111 |     30883357 |     30883357 |     30883357 |     30883357 |     63686665 |     63686665 |     63686665 |     63686665 |    131940476 |    131940476 |    131940476 |    131940476 |    271609722 |    271609722 |    271609722 |    271609722 |
dtlb.misses                                     11 |           11 |           11 |           11 |           15 |           15 |           15 |           15 |           23 |           23 |           23 |           23 |           39 |           39 |           39 |           39 |           71 |           71 |           71 |           71 |          160 |          160 |          160 |          160 |          753 |          753 |          753 |          753 |         2275 |         2275 |         2275 |         2275 |         5571 |         5571 |         5571 |         5571 |        13559 |        13559 |        13559 |        13559 |        30669 |        30669 |        30669 |        30669 |
dtlb.replacements                                0 |            0 |            0 |            0 |            0 |            0 |            0 |            0 |            0 |            0 |            0 |            0 |            0 |            0 |            0 |            0 |            0 |            0 |            0 |            0 |           32 |           32 |           32 |           32 |          625 |          625 |          625 |          625 |         2147 |         2147 |         2147 |         2147 |         5443 |         5443 |         5443 |         5443 |        13431 |        13431 |        13431 |        13431 |        30541 |        30541 |        30541 |        30541 |
dtlb.writebacks                                  0 |            0 |            0 |            0 |            0 |            0 |            0 |            0 |            0 |            0 |            0 |            0 |            0 |            0 |            0 |            0 |            0 |            0 |            0 |            0 |           31 |           31 |           31 |           31 |          624 |          624 |          624 |          624 |         2146 |         2146 |         2146 |         2146 |         5442 |         5442 |         5442 |         5442 |        13430 |        13430 |        13430 |        13430 |        30540 |        30540 |        30540 |        30540 |
dtlb.invalidations                               0 |            0 |            0 |            0 |            0 |            0 |            0 |            0 |            0 |            0 |            0 |            0 |            0 |            0 |            0 |            0 |            0 |            0 |            0 |            0 |            0 |            0 |            0 |            0 |            0 |            0 |            0 |            0 |            0 |            0 |            0 |            0 |            0 |            0 |            0 |            0 |            0 |            0 |            0 |            0 |            0 |            0 |            0 |            0 |
dtlb.miss_rate                              0.0001 |       0.0001 |       0.0001 |       0.0001 |       0.0000 |       0.0000 |       0.0000 |       0.0000 |       0.0000 |       0.0000 |       0.0000 |       0.0000 |       0.0000 |       0.0000 |       0.0000 |       0.0000 |       0.0000 |       0.0000 |       0.0000 |       0.0000 |       0.0000 |       0.0000 |       0.0000 |       0.0000 |       0.0001 |       0.0001 |       0.0001 |       0.0001 |       0.0001 |       0.0001 |       0.0001 |       0.0001 |       0.0001 |       0.0001 |       0.0001 |       0.0001 |       0.0001 |       0.0001 |       0.0001 |       0.0001 |       0.0001 |       0.0001 |       0.0001 |       0.0001 |
dtlb.repl_rate                              0.0000 |       0.0000 |       0.0000 |       0.0000 |       0.0000 |       0.0000 |       0.0000 |       0.0000 |       0.0000 |       0.0000 |       0.0000 |       0.0000 |       0.0000 |       0.0000 |       0.0000 |       0.0000 |       0.0000 |       0.0000 |       0.0000 |       0.0000 |       0.0000 |       0.0000 |       0.0000 |       0.0000 |       0.0000 |       0.0000 |       0.0000 |       0.0000 |       0.0001 |       0.0001 |       0.0001 |       0.0001 |       0.0001 |       0.0001 |       0.0001 |       0.0001 |       0.0001 |       0.0001 |       0.0001 |       0.0001 |       0.0001 |       0.0001 |       0.0001 |       0.0001 |
dtlb.wb_rate                                0.0000 |       0.0000 |       0.0000 |       0.0000 |       0.0000 |       0.0000 |       0.0000 |       0.0000 |       0.0000 |       0.0000 |       0.0000 |       0.0000 |       0.0000 |       0.0000 |       0.0000 |       0.0000 |       0.0000 |       0.0000 |       0.0000 |       0.0000 |       0.0000 |       0.0000 |       0.0000 |       0.0000 |       0.0000 |       0.0000 |       0.0000 |       0.0000 |       0.0001 |       0.0001 |       0.0001 |       0.0001 |       0.0001 |       0.0001 |       0.0001 |       0.0001 |       0.0001 |       0.0001 |       0.0001 |       0.0001 |       0.0001 |       0.0001 |       0.0001 |       0.0001 |
dtlb.inv_rate                               0.0000 |       0.0000 |       0.0000 |       0.0000 |       0.0000 |       0.0000 |       0.0000 |       0.0000 |       0.0000 |       0.0000 |       0.0000 |       0.0000 |       0.0000 |       0.0000 |       0.0000 |       0.0000 |       0.0000 |       0.0000 |       0.0000 |       0.0000 |       0.0000 |       0.0000 |       0.0000 |       0.0000 |       0.0000 |       0.0000 |       0.0000 |       0.0000 |       0.0000 |       0.0000 |       0.0000 |       0.0000 |       0.0000 |       0.0000 |       0.0000 |       0.0000 |       0.0000 |       0.0000 |       0.0000 |       0.0000 |       0.0000 |       0.0000 |       0.0000 |       0.0000 |
ld_text_base                            0x00400000 |   0x00400000 |   0x00400000 |   0x00400000 |   0x00400000 |   0x00400000 |   0x00400000 |   0x00400000 |   0x00400000 |   0x00400000 |   0x00400000 |   0x00400000 |   0x00400000 |   0x00400000 |   0x00400000 |   0x00400000 |   0x00400000 |   0x00400000 |   0x00400000 |   0x00400000 |   0x00400000 |   0x00400000 |   0x00400000 |   0x00400000 |   0x00400000 |   0x00400000 |   0x00400000 |   0x00400000 |   0x00400000 |   0x00400000 |   0x00400000 |   0x00400000 |   0x00400000 |   0x00400000 |   0x00400000 |   0x00400000 |   0x00400000 |   0x00400000 |   0x00400000 |   0x00400000 |   0x00400000 |   0x00400000 |   0x00400000 |   0x00400000 |
ld_text_size                                 27904 |        27904 |        27904 |        27904 |        27936 |        27936 |        27936 |        27936 |        27952 |        27952 |        27952 |        27952 |        27984 |        27984 |        27984 |        27984 |        27984 |        27984 |        27984 |        27984 |        27984 |        27984 |        27984 |        27984 |        27984 |        27984 |        27984 |        27984 |        27984 |        27984 |        27984 |        27984 |        27984 |        27984 |        27984 |        27984 |        27984 |        27984 |        27984 |        27984 |        27984 |        27984 |        27984 |        27984 |
ld_data_base                            0x10000000 |   0x10000000 |   0x10000000 |   0x10000000 |   0x10000000 |   0x10000000 |   0x10000000 |   0x10000000 |   0x10000000 |   0x10000000 |   0x10000000 |   0x10000000 |   0x10000000 |   0x10000000 |   0x10000000 |   0x10000000 |   0x10000000 |   0x10000000 |   0x10000000 |   0x10000000 |   0x10000000 |   0x10000000 |   0x10000000 |   0x10000000 |   0x10000000 |   0x10000000 |   0x10000000 |   0x10000000 |   0x10000000 |   0x10000000 |   0x10000000 |   0x10000000 |   0x10000000 |   0x10000000 |   0x10000000 |   0x10000000 |   0x10000000 |   0x10000000 |   0x10000000 |   0x10000000 |   0x10000000 |   0x10000000 |   0x10000000 |   0x10000000 |
ld_data_size                                  4096 |         4096 |         4096 |         4096 |         4096 |         4096 |         4096 |         4096 |         4096 |         4096 |         4096 |         4096 |         4096 |         4096 |         4096 |         4096 |         4096 |         4096 |         4096 |         4096 |         4096 |         4096 |         4096 |         4096 |         4096 |         4096 |         4096 |         4096 |         4096 |         4096 |         4096 |         4096 |         4096 |         4096 |         4096 |         4096 |         4096 |         4096 |         4096 |         4096 |         4096 |         4096 |         4096 |         4096 |
ld_stack_base                           0x7fffc000 |   0x7fffc000 |   0x7fffc000 |   0x7fffc000 |   0x7fffc000 |   0x7fffc000 |   0x7fffc000 |   0x7fffc000 |   0x7fffc000 |   0x7fffc000 |   0x7fffc000 |   0x7fffc000 |   0x7fffc000 |   0x7fffc000 |   0x7fffc000 |   0x7fffc000 |   0x7fffc000 |   0x7fffc000 |   0x7fffc000 |   0x7fffc000 |   0x7fffc000 |   0x7fffc000 |   0x7fffc000 |   0x7fffc000 |   0x7fffc000 |   0x7fffc000 |   0x7fffc000 |   0x7fffc000 |   0x7fffc000 |   0x7fffc000 |   0x7fffc000 |   0x7fffc000 |   0x7fffc000 |   0x7fffc000 |   0x7fffc000 |   0x7fffc000 |   0x7fffc000 |   0x7fffc000 |   0x7fffc000 |   0x7fffc000 |   0x7fffc000 |   0x7fffc000 |   0x7fffc000 |   0x7fffc000 |
ld_stack_size                                16384 |        16384 |        16384 |        16384 |        16384 |        16384 |        16384 |        16384 |        16384 |        16384 |        16384 |        16384 |        16384 |        16384 |        16384 |        16384 |        16384 |        16384 |        16384 |        16384 |        16384 |        16384 |        16384 |        16384 |        16384 |        16384 |        16384 |        16384 |        16384 |        16384 |        16384 |        16384 |        16384 |        16384 |        16384 |        16384 |        16384 |        16384 |        16384 |        16384 |        16384 |        16384 |        16384 |        16384 |
ld_prog_entry                           0x00400140 |   0x00400140 |   0x00400140 |   0x00400140 |   0x00400140 |   0x00400140 |   0x00400140 |   0x00400140 |   0x00400140 |   0x00400140 |   0x00400140 |   0x00400140 |   0x00400140 |   0x00400140 |   0x00400140 |   0x00400140 |   0x00400140 |   0x00400140 |   0x00400140 |   0x00400140 |   0x00400140 |   0x00400140 |   0x00400140 |   0x00400140 |   0x00400140 |   0x00400140 |   0x00400140 |   0x00400140 |   0x00400140 |   0x00400140 |   0x00400140 |   0x00400140 |   0x00400140 |   0x00400140 |   0x00400140 |   0x00400140 |   0x00400140 |   0x00400140 |   0x00400140 |   0x00400140 |   0x00400140 |   0x00400140 |   0x00400140 |   0x00400140 |
ld_environ_base                         0x7fff8000 |   0x7fff8000 |   0x7fff8000 |   0x7fff8000 |   0x7fff8000 |   0x7fff8000 |   0x7fff8000 |   0x7fff8000 |   0x7fff8000 |   0x7fff8000 |   0x7fff8000 |   0x7fff8000 |   0x7fff8000 |   0x7fff8000 |   0x7fff8000 |   0x7fff8000 |   0x7fff8000 |   0x7fff8000 |   0x7fff8000 |   0x7fff8000 |   0x7fff8000 |   0x7fff8000 |   0x7fff8000 |   0x7fff8000 |   0x7fff8000 |   0x7fff8000 |   0x7fff8000 |   0x7fff8000 |   0x7fff8000 |   0x7fff8000 |   0x7fff8000 |   0x7fff8000 |   0x7fff8000 |   0x7fff8000 |   0x7fff8000 |   0x7fff8000 |   0x7fff8000 |   0x7fff8000 |   0x7fff8000 |   0x7fff8000 |   0x7fff8000 |   0x7fff8000 |   0x7fff8000 |   0x7fff8000 |
ld_target_big_endian                             0 |            0 |            0 |            0 |            0 |            0 |            0 |            0 |            0 |            0 |            0 |            0 |            0 |            0 |            0 |            0 |            0 |            0 |            0 |            0 |            0 |            0 |            0 |            0 |            0 |            0 |            0 |            0 |            0 |            0 |            0 |            0 |            0 |            0 |            0 |            0 |            0 |            0 |            0 |            0 |            0 |            0 |            0 |            0 |
mem.page_count                                  18 |           18 |           18 |           18 |           22 |           22 |           22 |           22 |           30 |           30 |           30 |           30 |           46 |           46 |           46 |           46 |           78 |           78 |           78 |           78 |          142 |          142 |          142 |          142 |          270 |          270 |          270 |          270 |          526 |          526 |          526 |          526 |         1038 |         1038 |         1038 |         1038 |         2062 |         2062 |         2062 |         2062 |         4110 |         4110 |         4110 |         4110 |
mem.page_mem                                   72k |          72k |          72k |          72k |          88k |          88k |          88k |          88k |         120k |         120k |         120k |         120k |         184k |         184k |         184k |         184k |         312k |         312k |         312k |         312k |         568k |         568k |         568k |         568k |        1080k |        1080k |        1080k |        1080k |        2104k |        2104k |        2104k |        2104k |        4152k |        4152k |        4152k |        4152k |        8248k |        8248k |        8248k |        8248k |       16440k |       16440k |       16440k |       16440k |
mem.ptab_misses                                 18 |           18 |           18 |           18 |           22 |           22 |           22 |           22 |           30 |           30 |           30 |           30 |           46 |           46 |           46 |           46 |           78 |           78 |           78 |           78 |          142 |          142 |          142 |          142 |          270 |          270 |          270 |          270 |          526 |          526 |          526 |          526 |         1038 |         1038 |         1038 |         1038 |         2062 |         2062 |         2062 |         2062 |         4110 |         4110 |         4110 |         4110 |
mem.ptab_accesses                          2983774 |      2983774 |      2983774 |      2983774 |      6079832 |      6079832 |      6079832 |      6079832 |     12457932 |     12457932 |     12457932 |     12457932 |     25874354 |     25874354 |     25874354 |     25874354 |     54220530 |     54220530 |     54220530 |     54220530 |    114905248 |    114905248 |    114905248 |    114905248 |    237284812 |    237284812 |    237284812 |    237284812 |    502224444 |    502224444 |    502224444 |    502224444 |   1038145032 |   1038145032 |   1038145032 |   1038145032 |   2165254514 |   2165254514 |   2165254514 |   2165254514 |   4467006034 |   4467006034 |   4467006034 |   4467006034 |
mem.ptab_miss_rate                          0.0000 |       0.0000 |       0.0000 |       0.0000 |       0.0000 |       0.0000 |       0.0000 |       0.0000 |       0.0000 |       0.0000 |       0.0000 |       0.0000 |       0.0000 |       0.0000 |       0.0000 |       0.0000 |       0.0000 |       0.0000 |       0.0000 |       0.0000 |       0.0000 |       0.0000 |       0.0000 |       0.0000 |       0.0000 |       0.0000 |       0.0000 |       0.0000 |       0.0000 |       0.0000 |       0.0000 |       0.0000 |       0.0000 |       0.0000 |       0.0000 |       0.0000 |       0.0000 |       0.0000 |       0.0000 |       0.0000 |       0.0000 |       0.0000 |       0.0000 |       0.0000 |
-------------------------------------------------------------------------------------------------
sim-bpred                                     4096 |         4096 |         4096 |         4096 |         4096 |         4096 |         4096 |         8192 |         8192 |         8192 |         8192 |         8192 |         8192 |         8192 |        16384 |        16384 |        16384 |        16384 |        16384 |        16384 |        16384 |        32768 |        32768 |        32768 |        32768 |        32768 |        32768 |        32768 |        65536 |        65536 |        65536 |        65536 |        65536 |        65536 |        65536 |       131072 |       131072 |       131072 |       131072 |       131072 |       131072 |       131072 |       262144 |       262144 |       262144 |       262144 |       262144 |       262144 |       262144 |       524288 |       524288 |       524288 |       524288 |       524288 |       524288 |       524288 |      1048576 |      1048576 |      1048576 |      1048576 |      1048576 |      1048576 |      1048576 |      2097152 |      2097152 |      2097152 |      2097152 |      2097152 |      2097152 |      2097152 |      4194304 |      4194304 |      4194304 |      4194304 |      4194304 |      4194304 |      4194304 |
-bpred bimod -bpred:bimod 512
-bpred bimod -bpred:bimod 1024
-bpred bimod -bpred:bimod 2048
-bpred 2lev -bpred:2lev 1 512 10 1
-bpred 2lev -bpred:2lev 1 1024 10 1
-bpred 2lev -bpred:2lev 1 2048 10 1
-bpred 2lev -bpred:2lev 1 4096 10 1
-------------------------------------------------------------------------------------------------
sim_num_insn                                608719 |       608719 |       608719 |       608719 |       608719 |       608719 |       608719 |      1283676 |      1283676 |      1283676 |      1283676 |      1283676 |      1283676 |      1283676 |      2674542 |      2674542 |      2674542 |      2674542 |      2674542 |      2674542 |      2674542 |      5602639 |      5602639 |      5602639 |      5602639 |      5602639 |      5602639 |      5602639 |     11799667 |     11799667 |     11799667 |     11799667 |     11799667 |     11799667 |     11799667 |     25099519 |     25099519 |     25099519 |     25099519 |     25099519 |     25099519 |     25099519 |     51884483 |     51884483 |     51884483 |     51884483 |     51884483 |     51884483 |     51884483 |    110070007 |    110070007 |    110070007 |    110070007 |    110070007 |    110070007 |    110070007 |    227646852 |    227646852 |    227646852 |    227646852 |    227646852 |    227646852 |    227646852 |    475293323 |    475293323 |    475293323 |    475293323 |    475293323 |    475293323 |    475293323 |    980888025 |    980888025 |    980888025 |    980888025 |    980888025 |    980888025 |    980888025 |
sim_num_refs                                188043 |       188043 |       188043 |       188043 |       188043 |       188043 |       188043 |       386062 |       386062 |       386062 |       386062 |       386062 |       386062 |       386062 |       793332 |       793332 |       793332 |       793332 |       793332 |       793332 |       793332 |      1645253 |      1645253 |      1645253 |      1645253 |      1645253 |      1645253 |      1645253 |      3424285 |      3424285 |      3424285 |      3424285 |      3424285 |      3424285 |      3424285 |      7166940 |      7166940 |      7166940 |      7166940 |      7166940 |      7166940 |      7166940 |     14786794 |     14786794 |     14786794 |     14786794 |     14786794 |     14786794 |     14786794 |     30885562 |     30885562 |     30885562 |     30885562 |     30885562 |     30885562 |     30885562 |     63692166 |     63692166 |     63692166 |     63692166 |     63692166 |     63692166 |     63692166 |    131953965 |    131953965 |    131953965 |    131953965 |    131953965 |    131953965 |    131953965 |    271640321 |    271640321 |    271640321 |    271640321 |    271640321 |    271640321 |    271640321 |
sim_elapsed_time                                 1 |            1 |            1 |            1 |            1 |            1 |            1 |            1 |            1 |            1 |            1 |            1 |            1 |            1 |            1 |            1 |            1 |            1 |            1 |            1 |            1 |            2 |            1 |            1 |            2 |            1 |            2 |            1 |            3 |            3 |            3 |            3 |            3 |            3 |            3 |            7 |            6 |            6 |            7 |            6 |            7 |            6 |           13 |           13 |           13 |           13 |           14 |           13 |           13 |           28 |           28 |           27 |           29 |           28 |           28 |           28 |           58 |           58 |           58 |           58 |           59 |           59 |           58 |          120 |          119 |          119 |          123 |          121 |          122 |          122 |          251 |          249 |          250 |          254 |          253 |          254 |          280 |
sim_inst_rate                          608719.0000 |  608719.0000 |  608719.0000 |  608719.0000 |  608719.0000 |  608719.0000 |  608719.0000 | 1283676.0000 | 1283676.0000 | 1283676.0000 | 1283676.0000 | 1283676.0000 | 1283676.0000 | 1283676.0000 | 2674542.0000 | 2674542.0000 | 2674542.0000 | 2674542.0000 | 2674542.0000 | 2674542.0000 | 2674542.0000 | 2801319.5000 | 5602639.0000 | 5602639.0000 | 2801319.5000 | 5602639.0000 | 2801319.5000 | 5602639.0000 | 3933222.3333 | 3933222.3333 | 3933222.3333 | 3933222.3333 | 3933222.3333 | 3933222.3333 | 3933222.3333 | 3585645.5714 | 4183253.1667 | 4183253.1667 | 3585645.5714 | 4183253.1667 | 3585645.5714 | 4183253.1667 | 3991114.0769 | 3991114.0769 | 3991114.0769 | 3991114.0769 | 3706034.5000 | 3991114.0769 | 3991114.0769 | 3931071.6786 | 3931071.6786 | 4076666.9259 | 3795517.4828 | 3931071.6786 | 3931071.6786 | 3931071.6786 | 3924945.7241 | 3924945.7241 | 3924945.7241 | 3924945.7241 | 3858421.2203 | 3858421.2203 | 3924945.7241 | 3960777.6917 | 3994061.5378 | 3994061.5378 | 3864173.3577 | 3928043.9917 | 3895846.9098 | 3895846.9098 | 3907920.4183 | 3939309.3373 | 3923552.1000 | 3861763.8780 | 3877027.7668 | 3861763.8780 | 3503171.5179 |
sim_num_branches                            108415 |       108415 |       108415 |       108415 |       108415 |       108415 |       108415 |       228673 |       228673 |       228673 |       228673 |       228673 |       228673 |       228673 |       477516 |       477516 |       477516 |       477516 |       477516 |       477516 |       477516 |      1000721 |      1000721 |      1000721 |      1000721 |      1000721 |      1000721 |      1000721 |      2108060 |      2108060 |      2108060 |      2108060 |      2108060 |      2108060 |      2108060 |      4483918 |      4483918 |      4483918 |      4483918 |      4483918 |      4483918 |      4483918 |      9289638 |      9289638 |      9289638 |      9289638 |      9289638 |      9289638 |      9289638 |     19663247 |     19663247 |     19663247 |     19663247 |     19663247 |     19663247 |     19663247 |     40721450 |     40721450 |     40721450 |     40721450 |     40721450 |     40721450 |     40721450 |     85041024 |     85041024 |     85041024 |     85041024 |     85041024 |     85041024 |     85041024 |    175640563 |    175640563 |    175640563 |    175640563 |    175640563 |    175640563 |    175640563 |
sim_IPB                                     5.6147 |       5.6147 |       5.6147 |       5.6147 |       5.6147 |       5.6147 |       5.6147 |       5.6136 |       5.6136 |       5.6136 |       5.6136 |       5.6136 |       5.6136 |       5.6136 |       5.6009 |       5.6009 |       5.6009 |       5.6009 |       5.6009 |       5.6009 |       5.6009 |       5.5986 |       5.5986 |       5.5986 |       5.5986 |       5.5986 |       5.5986 |       5.5986 |       5.5974 |       5.5974 |       5.5974 |       5.5974 |       5.5974 |       5.5974 |       5.5974 |       5.5977 |       5.5977 |       5.5977 |       5.5977 |       5.5977 |       5.5977 |       5.5977 |       5.5852 |       5.5852 |       5.5852 |       5.5852 |       5.5852 |       5.5852 |       5.5852 |       5.5978 |       5.5978 |       5.5978 |       5.5978 |       5.5978 |       5.5978 |       5.5978 |       5.5903 |       5.5903 |       5.5903 |       5.5903 |       5.5903 |       5.5903 |       5.5903 |       5.5890 |       5.5890 |       5.5890 |       5.5890 |       5.5890 |       5.5890 |       5.5890 |       5.5846 |       5.5846 |       5.5846 |       5.5846 |       5.5846 |       5.5846 |       5.5846 |
bpred_bimod.lookups                         108415 |       108415 |       108415 |xxxxxxxxxxxxx |xxxxxxxxxxxxx |xxxxxxxxxxxxx |xxxxxxxxxxxxx |       228673 |       228673 |       228673 |xxxxxxxxxxxxx |xxxxxxxxxxxxx |xxxxxxxxxxxxx |xxxxxxxxxxxxx |       477516 |       477516 |       477516 |xxxxxxxxxxxxx |xxxxxxxxxxxxx |xxxxxxxxxxxxx |xxxxxxxxxxxxx |      1000721 |      1000721 |      1000721 |xxxxxxxxxxxxx |xxxxxxxxxxxxx |xxxxxxxxxxxxx |xxxxxxxxxxxxx |      2108060 |      2108060 |      2108060 |xxxxxxxxxxxxx |xxxxxxxxxxxxx |xxxxxxxxxxxxx |xxxxxxxxxxxxx |      4483918 |      4483918 |      4483918 |xxxxxxxxxxxxx |xxxxxxxxxxxxx |xxxxxxxxxxxxx |xxxxxxxxxxxxx |      9289638 |      9289638 |      9289638 |xxxxxxxxxxxxx |xxxxxxxxxxxxx |xxxxxxxxxxxxx |xxxxxxxxxxxxx |     19663247 |     19663247 |     19663247 |xxxxxxxxxxxxx |xxxxxxxxxxxxx |xxxxxxxxxxxxx |xxxxxxxxxxxxx |     40721450 |     40721450 |     40721450 |xxxxxxxxxxxxx |xxxxxxxxxxxxx |xxxxxxxxxxxxx |xxxxxxxxxxxxx |     85041024 |     85041024 |     85041024 |xxxxxxxxxxxxx |xxxxxxxxxxxxx |xxxxxxxxxxxxx |xxxxxxxxxxxxx |    175640563 |    175640563 |    175640563 |
bpred_bimod.updates                         108415 |       108415 |       108415 |xxxxxxxxxxxxx |xxxxxxxxxxxxx |xxxxxxxxxxxxx |xxxxxxxxxxxxx |       228673 |       228673 |       228673 |xxxxxxxxxxxxx |xxxxxxxxxxxxx |xxxxxxxxxxxxx |xxxxxxxxxxxxx |       477516 |       477516 |       477516 |xxxxxxxxxxxxx |xxxxxxxxxxxxx |xxxxxxxxxxxxx |xxxxxxxxxxxxx |      1000721 |      1000721 |      1000721 |xxxxxxxxxxxxx |xxxxxxxxxxxxx |xxxxxxxxxxxxx |xxxxxxxxxxxxx |      2108060 |      2108060 |      2108060 |xxxxxxxxxxxxx |xxxxxxxxxxxxx |xxxxxxxxxxxxx |xxxxxxxxxxxxx |      4483918 |      4483918 |      4483918 |xxxxxxxxxxxxx |xxxxxxxxxxxxx |xxxxxxxxxxxxx |xxxxxxxxxxxxx |      9289638 |      9289638 |      9289638 |xxxxxxxxxxxxx |xxxxxxxxxxxxx |xxxxxxxxxxxxx |xxxxxxxxxxxxx |     19663247 |     19663247 |     19663247 |xxxxxxxxxxxxx |xxxxxxxxxxxxx |xxxxxxxxxxxxx |xxxxxxxxxxxxx |     40721450 |     40721450 |     40721450 |xxxxxxxxxxxxx |xxxxxxxxxxxxx |xxxxxxxxxxxxx |xxxxxxxxxxxxx |     85041024 |     85041024 |     85041024 |xxxxxxxxxxxxx |xxxxxxxxxxxxx |xxxxxxxxxxxxx |xxxxxxxxxxxxx |    175640563 |    175640563 |    175640563 |
bpred_bimod.addr_hits                        85156 |        85156 |        85161 |xxxxxxxxxxxxx |xxxxxxxxxxxxx |xxxxxxxxxxxxx |xxxxxxxxxxxxx |       179704 |       179707 |       179712 |xxxxxxxxxxxxx |xxxxxxxxxxxxx |xxxxxxxxxxxxx |xxxxxxxxxxxxx |       374382 |       374385 |       374390 |xxxxxxxxxxxxx |xxxxxxxxxxxxx |xxxxxxxxxxxxx |xxxxxxxxxxxxx |       776229 |       776228 |       776234 |xxxxxxxxxxxxx |xxxxxxxxxxxxx |xxxxxxxxxxxxx |xxxxxxxxxxxxx |      1631403 |      1631401 |      1631407 |xxxxxxxxxxxxx |xxxxxxxxxxxxx |xxxxxxxxxxxxx |xxxxxxxxxxxxx |      3488843 |      3488842 |      3488848 |xxxxxxxxxxxxx |xxxxxxxxxxxxx |xxxxxxxxxxxxx |xxxxxxxxxxxxx |      7162162 |      7162160 |      7162166 |xxxxxxxxxxxxx |xxxxxxxxxxxxx |xxxxxxxxxxxxx |xxxxxxxxxxxxx |     15234331 |     15234330 |     15234336 |xxxxxxxxxxxxx |xxxxxxxxxxxxx |xxxxxxxxxxxxx |xxxxxxxxxxxxx |     31354480 |     31354478 |     31354484 |xxxxxxxxxxxxx |xxxxxxxxxxxxx |xxxxxxxxxxxxx |xxxxxxxxxxxxx |     65441564 |     65441562 |     65441568 |xxxxxxxxxxxxx |xxxxxxxxxxxxx |xxxxxxxxxxxxx |xxxxxxxxxxxxx |    134155202 |    134155201 |    134155207 |
bpred_bimod.dir_hits                         85277 |        85275 |        85280 |xxxxxxxxxxxxx |xxxxxxxxxxxxx |xxxxxxxxxxxxx |xxxxxxxxxxxxx |       179825 |       179825 |       179829 |xxxxxxxxxxxxx |xxxxxxxxxxxxx |xxxxxxxxxxxxx |xxxxxxxxxxxxx |       374504 |       374505 |       374509 |xxxxxxxxxxxxx |xxxxxxxxxxxxx |xxxxxxxxxxxxx |xxxxxxxxxxxxx |       776351 |       776349 |       776355 |xxxxxxxxxxxxx |xxxxxxxxxxxxx |xxxxxxxxxxxxx |xxxxxxxxxxxxx |      1631524 |      1631521 |      1631527 |xxxxxxxxxxxxx |xxxxxxxxxxxxx |xxxxxxxxxxxxx |xxxxxxxxxxxxx |      3488964 |      3488962 |      3488968 |xxxxxxxxxxxxx |xxxxxxxxxxxxx |xxxxxxxxxxxxx |xxxxxxxxxxxxx |      7162281 |      7162278 |      7162284 |xxxxxxxxxxxxx |xxxxxxxxxxxxx |xxxxxxxxxxxxx |xxxxxxxxxxxxx |     15234448 |     15234446 |     15234452 |xxxxxxxxxxxxx |xxxxxxxxxxxxx |xxxxxxxxxxxxx |xxxxxxxxxxxxx |     31354600 |     31354597 |     31354603 |xxxxxxxxxxxxx |xxxxxxxxxxxxx |xxxxxxxxxxxxx |xxxxxxxxxxxxx |     65441683 |     65441680 |     65441685 |xxxxxxxxxxxxx |xxxxxxxxxxxxx |xxxxxxxxxxxxx |xxxxxxxxxxxxx |    134155319 |    134155318 |    134155324 |
bpred_bimod.misses                           23138 |        23140 |        23135 |xxxxxxxxxxxxx |xxxxxxxxxxxxx |xxxxxxxxxxxxx |xxxxxxxxxxxxx |        48848 |        48848 |        48844 |xxxxxxxxxxxxx |xxxxxxxxxxxxx |xxxxxxxxxxxxx |xxxxxxxxxxxxx |       103012 |       103011 |       103007 |xxxxxxxxxxxxx |xxxxxxxxxxxxx |xxxxxxxxxxxxx |xxxxxxxxxxxxx |       224370 |       224372 |       224366 |xxxxxxxxxxxxx |xxxxxxxxxxxxx |xxxxxxxxxxxxx |xxxxxxxxxxxxx |       476536 |       476539 |       476533 |xxxxxxxxxxxxx |xxxxxxxxxxxxx |xxxxxxxxxxxxx |xxxxxxxxxxxxx |       994954 |       994956 |       994950 |xxxxxxxxxxxxx |xxxxxxxxxxxxx |xxxxxxxxxxxxx |xxxxxxxxxxxxx |      2127357 |      2127360 |      2127354 |xxxxxxxxxxxxx |xxxxxxxxxxxxx |xxxxxxxxxxxxx |xxxxxxxxxxxxx |      4428799 |      4428801 |      4428795 |xxxxxxxxxxxxx |xxxxxxxxxxxxx |xxxxxxxxxxxxx |xxxxxxxxxxxxx |      9366850 |      9366853 |      9366847 |xxxxxxxxxxxxx |xxxxxxxxxxxxx |xxxxxxxxxxxxx |xxxxxxxxxxxxx |     19599341 |     19599344 |     19599339 |xxxxxxxxxxxxx |xxxxxxxxxxxxx |xxxxxxxxxxxxx |xxxxxxxxxxxxx |     41485244 |     41485245 |     41485239 |
bpred_bimod.jr_hits                           8560 |         8560 |         8560 |xxxxxxxxxxxxx |xxxxxxxxxxxxx |xxxxxxxxxxxxx |xxxxxxxxxxxxx |        16752 |        16752 |        16752 |xxxxxxxxxxxxx |xxxxxxxxxxxxx |xxxxxxxxxxxxx |xxxxxxxxxxxxx |        33136 |        33136 |        33136 |xxxxxxxxxxxxx |xxxxxxxxxxxxx |xxxxxxxxxxxxx |xxxxxxxxxxxxx |        65904 |        65904 |        65904 |xxxxxxxxxxxxx |xxxxxxxxxxxxx |xxxxxxxxxxxxx |xxxxxxxxxxxxx |       131440 |       131440 |       131440 |xxxxxxxxxxxxx |xxxxxxxxxxxxx |xxxxxxxxxxxxx |xxxxxxxxxxxxx |       262512 |       262512 |       262512 |xxxxxxxxxxxxx |xxxxxxxxxxxxx |xxxxxxxxxxxxx |xxxxxxxxxxxxx |       524656 |       524656 |       524656 |xxxxxxxxxxxxx |xxxxxxxxxxxxx |xxxxxxxxxxxxx |xxxxxxxxxxxxx |      1048944 |      1048944 |      1048944 |xxxxxxxxxxxxx |xxxxxxxxxxxxx |xxxxxxxxxxxxx |xxxxxxxxxxxxx |      2097520 |      2097520 |      2097520 |xxxxxxxxxxxxx |xxxxxxxxxxxxx |xxxxxxxxxxxxx |xxxxxxxxxxxxx |      4194672 |      4194672 |      4194672 |xxxxxxxxxxxxx |xxxxxxxxxxxxx |xxxxxxxxxxxxx |xxxxxxxxxxxxx |      8388976 |      8388976 |      8388976 |
bpred_bimod.jr_seen                           8560 |         8560 |         8560 |xxxxxxxxxxxxx |xxxxxxxxxxxxx |xxxxxxxxxxxxx |xxxxxxxxxxxxx |        16752 |        16752 |        16752 |xxxxxxxxxxxxx |xxxxxxxxxxxxx |xxxxxxxxxxxxx |xxxxxxxxxxxxx |        33136 |        33136 |        33136 |xxxxxxxxxxxxx |xxxxxxxxxxxxx |xxxxxxxxxxxxx |xxxxxxxxxxxxx |        65904 |        65904 |        65904 |xxxxxxxxxxxxx |xxxxxxxxxxxxx |xxxxxxxxxxxxx |xxxxxxxxxxxxx |       131440 |       131440 |       131440 |xxxxxxxxxxxxx |xxxxxxxxxxxxx |xxxxxxxxxxxxx |xxxxxxxxxxxxx |       262512 |       262512 |       262512 |xxxxxxxxxxxxx |xxxxxxxxxxxxx |xxxxxxxxxxxxx |xxxxxxxxxxxxx |       524656 |       524656 |       524656 |xxxxxxxxxxxxx |xxxxxxxxxxxxx |xxxxxxxxxxxxx |xxxxxxxxxxxxx |      1048944 |      1048944 |      1048944 |xxxxxxxxxxxxx |xxxxxxxxxxxxx |xxxxxxxxxxxxx |xxxxxxxxxxxxx |      2097520 |      2097520 |      2097520 |xxxxxxxxxxxxx |xxxxxxxxxxxxx |xxxxxxxxxxxxx |xxxxxxxxxxxxx |      4194672 |      4194672 |      4194672 |xxxxxxxxxxxxx |xxxxxxxxxxxxx |xxxxxxxxxxxxx |xxxxxxxxxxxxx |      8388976 |      8388976 |      8388976 |
bpred_bimod.jr_non_ras_hits.PP                   0 |            0 |            0 |xxxxxxxxxxxxx |xxxxxxxxxxxxx |xxxxxxxxxxxxx |xxxxxxxxxxxxx |            0 |            0 |            0 |xxxxxxxxxxxxx |xxxxxxxxxxxxx |xxxxxxxxxxxxx |xxxxxxxxxxxxx |            0 |            0 |            0 |xxxxxxxxxxxxx |xxxxxxxxxxxxx |xxxxxxxxxxxxx |xxxxxxxxxxxxx |            0 |            0 |            0 |xxxxxxxxxxxxx |xxxxxxxxxxxxx |xxxxxxxxxxxxx |xxxxxxxxxxxxx |            0 |            0 |            0 |xxxxxxxxxxxxx |xxxxxxxxxxxxx |xxxxxxxxxxxxx |xxxxxxxxxxxxx |            0 |            0 |            0 |xxxxxxxxxxxxx |xxxxxxxxxxxxx |xxxxxxxxxxxxx |xxxxxxxxxxxxx |            0 |            0 |            0 |xxxxxxxxxxxxx |xxxxxxxxxxxxx |xxxxxxxxxxxxx |xxxxxxxxxxxxx |            0 |            0 |            0 |xxxxxxxxxxxxx |xxxxxxxxxxxxx |xxxxxxxxxxxxx |xxxxxxxxxxxxx |            0 |            0 |            0 |xxxxxxxxxxxxx |xxxxxxxxxxxxx |xxxxxxxxxxxxx |xxxxxxxxxxxxx |            0 |            0 |            0 |xxxxxxxxxxxxx |xxxxxxxxxxxxx |xxxxxxxxxxxxx |xxxxxxxxxxxxx |            0 |            0 |            0 |
bpred_bimod.jr_non_ras_seen.PP                   0 |            0 |            0 |xxxxxxxxxxxxx |xxxxxxxxxxxxx |xxxxxxxxxxxxx |xxxxxxxxxxxxx |            0 |            0 |            0 |xxxxxxxxxxxxx |xxxxxxxxxxxxx |xxxxxxxxxxxxx |xxxxxxxxxxxxx |            0 |            0 |            0 |xxxxxxxxxxxxx |xxxxxxxxxxxxx |xxxxxxxxxxxxx |xxxxxxxxxxxxx |            0 |            0 |            0 |xxxxxxxxxxxxx |xxxxxxxxxxxxx |xxxxxxxxxxxxx |xxxxxxxxxxxxx |            0 |            0 |            0 |xxxxxxxxxxxxx |xxxxxxxxxxxxx |xxxxxxxxxxxxx |xxxxxxxxxxxxx |            0 |            0 |            0 |xxxxxxxxxxxxx |xxxxxxxxxxxxx |xxxxxxxxxxxxx |xxxxxxxxxxxxx |            0 |            0 |            0 |xxxxxxxxxxxxx |xxxxxxxxxxxxx |xxxxxxxxxxxxx |xxxxxxxxxxxxx |            0 |            0 |            0 |xxxxxxxxxxxxx |xxxxxxxxxxxxx |xxxxxxxxxxxxx |xxxxxxxxxxxxx |            0 |            0 |            0 |xxxxxxxxxxxxx |xxxxxxxxxxxxx |xxxxxxxxxxxxx |xxxxxxxxxxxxx |            0 |            0 |            0 |xxxxxxxxxxxxx |xxxxxxxxxxxxx |xxxxxxxxxxxxx |xxxxxxxxxxxxx |            0 |            0 |            0 |
bpred_bimod.bpred_addr_rate                 0.7855 |       0.7855 |       0.7855 |xxxxxxxxxxxxx |xxxxxxxxxxxxx |xxxxxxxxxxxxx |xxxxxxxxxxxxx |       0.7859 |       0.7859 |       0.7859 |xxxxxxxxxxxxx |xxxxxxxxxxxxx |xxxxxxxxxxxxx |xxxxxxxxxxxxx |       0.7840 |       0.7840 |       0.7840 |xxxxxxxxxxxxx |xxxxxxxxxxxxx |xxxxxxxxxxxxx |xxxxxxxxxxxxx |       0.7757 |       0.7757 |       0.7757 |xxxxxxxxxxxxx |xxxxxxxxxxxxx |xxxxxxxxxxxxx |xxxxxxxxxxxxx |       0.7739 |       0.7739 |       0.7739 |xxxxxxxxxxxxx |xxxxxxxxxxxxx |xxxxxxxxxxxxx |xxxxxxxxxxxxx |       0.7781 |       0.7781 |       0.7781 |xxxxxxxxxxxxx |xxxxxxxxxxxxx |xxxxxxxxxxxxx |xxxxxxxxxxxxx |       0.7710 |       0.7710 |       0.7710 |xxxxxxxxxxxxx |xxxxxxxxxxxxx |xxxxxxxxxxxxx |xxxxxxxxxxxxx |       0.7748 |       0.7748 |       0.7748 |xxxxxxxxxxxxx |xxxxxxxxxxxxx |xxxxxxxxxxxxx |xxxxxxxxxxxxx |       0.7700 |       0.7700 |       0.7700 |xxxxxxxxxxxxx |xxxxxxxxxxxxx |xxxxxxxxxxxxx |xxxxxxxxxxxxx |       0.7695 |       0.7695 |       0.7695 |xxxxxxxxxxxxx |xxxxxxxxxxxxx |xxxxxxxxxxxxx |xxxxxxxxxxxxx |       0.7638 |       0.7638 |       0.7638 |
bpred_bimod.bpred_dir_rate                  0.7866 |       0.7866 |       0.7866 |xxxxxxxxxxxxx |xxxxxxxxxxxxx |xxxxxxxxxxxxx |xxxxxxxxxxxxx |       0.7864 |       0.7864 |       0.7864 |xxxxxxxxxxxxx |xxxxxxxxxxxxx |xxxxxxxxxxxxx |xxxxxxxxxxxxx |       0.7843 |       0.7843 |       0.7843 |xxxxxxxxxxxxx |xxxxxxxxxxxxx |xxxxxxxxxxxxx |xxxxxxxxxxxxx |       0.7758 |       0.7758 |       0.7758 |xxxxxxxxxxxxx |xxxxxxxxxxxxx |xxxxxxxxxxxxx |xxxxxxxxxxxxx |       0.7739 |       0.7739 |       0.7739 |xxxxxxxxxxxxx |xxxxxxxxxxxxx |xxxxxxxxxxxxx |xxxxxxxxxxxxx |       0.7781 |       0.7781 |       0.7781 |xxxxxxxxxxxxx |xxxxxxxxxxxxx |xxxxxxxxxxxxx |xxxxxxxxxxxxx |       0.7710 |       0.7710 |       0.7710 |xxxxxxxxxxxxx |xxxxxxxxxxxxx |xxxxxxxxxxxxx |xxxxxxxxxxxxx |       0.7748 |       0.7748 |       0.7748 |xxxxxxxxxxxxx |xxxxxxxxxxxxx |xxxxxxxxxxxxx |xxxxxxxxxxxxx |       0.7700 |       0.7700 |       0.7700 |xxxxxxxxxxxxx |xxxxxxxxxxxxx |xxxxxxxxxxxxx |xxxxxxxxxxxxx |       0.7695 |       0.7695 |       0.7695 |xxxxxxxxxxxxx |xxxxxxxxxxxxx |xxxxxxxxxxxxx |xxxxxxxxxxxxx |       0.7638 |       0.7638 |       0.7638 |
bpred_bimod.bpred_jr_rate                   1.0000 |       1.0000 |       1.0000 |xxxxxxxxxxxxx |xxxxxxxxxxxxx |xxxxxxxxxxxxx |xxxxxxxxxxxxx |       1.0000 |       1.0000 |       1.0000 |xxxxxxxxxxxxx |xxxxxxxxxxxxx |xxxxxxxxxxxxx |xxxxxxxxxxxxx |       1.0000 |       1.0000 |       1.0000 |xxxxxxxxxxxxx |xxxxxxxxxxxxx |xxxxxxxxxxxxx |xxxxxxxxxxxxx |       1.0000 |       1.0000 |       1.0000 |xxxxxxxxxxxxx |xxxxxxxxxxxxx |xxxxxxxxxxxxx |xxxxxxxxxxxxx |       1.0000 |       1.0000 |       1.0000 |xxxxxxxxxxxxx |xxxxxxxxxxxxx |xxxxxxxxxxxxx |xxxxxxxxxxxxx |       1.0000 |       1.0000 |       1.0000 |xxxxxxxxxxxxx |xxxxxxxxxxxxx |xxxxxxxxxxxxx |xxxxxxxxxxxxx |       1.0000 |       1.0000 |       1.0000 |xxxxxxxxxxxxx |xxxxxxxxxxxxx |xxxxxxxxxxxxx |xxxxxxxxxxxxx |       1.0000 |       1.0000 |       1.0000 |xxxxxxxxxxxxx |xxxxxxxxxxxxx |xxxxxxxxxxxxx |xxxxxxxxxxxxx |       1.0000 |       1.0000 |       1.0000 |xxxxxxxxxxxxx |xxxxxxxxxxxxx |xxxxxxxxxxxxx |xxxxxxxxxxxxx |       1.0000 |       1.0000 |       1.0000 |xxxxxxxxxxxxx |xxxxxxxxxxxxx |xxxxxxxxxxxxx |xxxxxxxxxxxxx |       1.0000 |       1.0000 |       1.0000 |
bpred_bimod.bpred_jr_non_ras_rate.PP       <error: |      <error: |      <error: |xxxxxxxxxxxxx |xxxxxxxxxxxxx |xxxxxxxxxxxxx |xxxxxxxxxxxxx |      <error: |      <error: |      <error: |xxxxxxxxxxxxx |xxxxxxxxxxxxx |xxxxxxxxxxxxx |xxxxxxxxxxxxx |      <error: |      <error: |      <error: |xxxxxxxxxxxxx |xxxxxxxxxxxxx |xxxxxxxxxxxxx |xxxxxxxxxxxxx |      <error: |      <error: |      <error: |xxxxxxxxxxxxx |xxxxxxxxxxxxx |xxxxxxxxxxxxx |xxxxxxxxxxxxx |      <error: |      <error: |      <error: |xxxxxxxxxxxxx |xxxxxxxxxxxxx |xxxxxxxxxxxxx |xxxxxxxxxxxxx |      <error: |      <error: |      <error: |xxxxxxxxxxxxx |xxxxxxxxxxxxx |xxxxxxxxxxxxx |xxxxxxxxxxxxx |      <error: |      <error: |      <error: |xxxxxxxxxxxxx |xxxxxxxxxxxxx |xxxxxxxxxxxxx |xxxxxxxxxxxxx |      <error: |      <error: |      <error: |xxxxxxxxxxxxx |xxxxxxxxxxxxx |xxxxxxxxxxxxx |xxxxxxxxxxxxx |      <error: |      <error: |      <error: |xxxxxxxxxxxxx |xxxxxxxxxxxxx |xxxxxxxxxxxxx |xxxxxxxxxxxxx |      <error: |      <error: |      <error: |xxxxxxxxxxxxx |xxxxxxxxxxxxx |xxxxxxxxxxxxx |xxxxxxxxxxxxx |      <error: |      <error: |      <error: |
bpred_bimod.retstack_pushes                   8562 |         8562 |         8562 |xxxxxxxxxxxxx |xxxxxxxxxxxxx |xxxxxxxxxxxxx |xxxxxxxxxxxxx |        16754 |        16754 |        16754 |xxxxxxxxxxxxx |xxxxxxxxxxxxx |xxxxxxxxxxxxx |xxxxxxxxxxxxx |        33138 |        33138 |        33138 |xxxxxxxxxxxxx |xxxxxxxxxxxxx |xxxxxxxxxxxxx |xxxxxxxxxxxxx |        65906 |        65906 |        65906 |xxxxxxxxxxxxx |xxxxxxxxxxxxx |xxxxxxxxxxxxx |xxxxxxxxxxxxx |       131442 |       131442 |       131442 |xxxxxxxxxxxxx |xxxxxxxxxxxxx |xxxxxxxxxxxxx |xxxxxxxxxxxxx |       262514 |       262514 |       262514 |xxxxxxxxxxxxx |xxxxxxxxxxxxx |xxxxxxxxxxxxx |xxxxxxxxxxxxx |       524658 |       524658 |       524658 |xxxxxxxxxxxxx |xxxxxxxxxxxxx |xxxxxxxxxxxxx |xxxxxxxxxxxxx |      1048946 |      1048946 |      1048946 |xxxxxxxxxxxxx |xxxxxxxxxxxxx |xxxxxxxxxxxxx |xxxxxxxxxxxxx |      2097522 |      2097522 |      2097522 |xxxxxxxxxxxxx |xxxxxxxxxxxxx |xxxxxxxxxxxxx |xxxxxxxxxxxxx |      4194674 |      4194674 |      4194674 |xxxxxxxxxxxxx |xxxxxxxxxxxxx |xxxxxxxxxxxxx |xxxxxxxxxxxxx |      8388978 |      8388978 |      8388978 |
bpred_bimod.retstack_pops                     8560 |         8560 |         8560 |xxxxxxxxxxxxx |xxxxxxxxxxxxx |xxxxxxxxxxxxx |xxxxxxxxxxxxx |        16752 |        16752 |        16752 |xxxxxxxxxxxxx |xxxxxxxxxxxxx |xxxxxxxxxxxxx |xxxxxxxxxxxxx |        33136 |        33136 |        33136 |xxxxxxxxxxxxx |xxxxxxxxxxxxx |xxxxxxxxxxxxx |xxxxxxxxxxxxx |        65904 |        65904 |        65904 |xxxxxxxxxxxxx |xxxxxxxxxxxxx |xxxxxxxxxxxxx |xxxxxxxxxxxxx |       131440 |       131440 |       131440 |xxxxxxxxxxxxx |xxxxxxxxxxxxx |xxxxxxxxxxxxx |xxxxxxxxxxxxx |       262512 |       262512 |       262512 |xxxxxxxxxxxxx |xxxxxxxxxxxxx |xxxxxxxxxxxxx |xxxxxxxxxxxxx |       524656 |       524656 |       524656 |xxxxxxxxxxxxx |xxxxxxxxxxxxx |xxxxxxxxxxxxx |xxxxxxxxxxxxx |      1048944 |      1048944 |      1048944 |xxxxxxxxxxxxx |xxxxxxxxxxxxx |xxxxxxxxxxxxx |xxxxxxxxxxxxx |      2097520 |      2097520 |      2097520 |xxxxxxxxxxxxx |xxxxxxxxxxxxx |xxxxxxxxxxxxx |xxxxxxxxxxxxx |      4194672 |      4194672 |      4194672 |xxxxxxxxxxxxx |xxxxxxxxxxxxx |xxxxxxxxxxxxx |xxxxxxxxxxxxx |      8388976 |      8388976 |      8388976 |
bpred_bimod.used_ras.PP                       8560 |         8560 |         8560 |xxxxxxxxxxxxx |xxxxxxxxxxxxx |xxxxxxxxxxxxx |xxxxxxxxxxxxx |        16752 |        16752 |        16752 |xxxxxxxxxxxxx |xxxxxxxxxxxxx |xxxxxxxxxxxxx |xxxxxxxxxxxxx |        33136 |        33136 |        33136 |xxxxxxxxxxxxx |xxxxxxxxxxxxx |xxxxxxxxxxxxx |xxxxxxxxxxxxx |        65904 |        65904 |        65904 |xxxxxxxxxxxxx |xxxxxxxxxxxxx |xxxxxxxxxxxxx |xxxxxxxxxxxxx |       131440 |       131440 |       131440 |xxxxxxxxxxxxx |xxxxxxxxxxxxx |xxxxxxxxxxxxx |xxxxxxxxxxxxx |       262512 |       262512 |       262512 |xxxxxxxxxxxxx |xxxxxxxxxxxxx |xxxxxxxxxxxxx |xxxxxxxxxxxxx |       524656 |       524656 |       524656 |xxxxxxxxxxxxx |xxxxxxxxxxxxx |xxxxxxxxxxxxx |xxxxxxxxxxxxx |      1048944 |      1048944 |      1048944 |xxxxxxxxxxxxx |xxxxxxxxxxxxx |xxxxxxxxxxxxx |xxxxxxxxxxxxx |      2097520 |      2097520 |      2097520 |xxxxxxxxxxxxx |xxxxxxxxxxxxx |xxxxxxxxxxxxx |xxxxxxxxxxxxx |      4194672 |      4194672 |      4194672 |xxxxxxxxxxxxx |xxxxxxxxxxxxx |xxxxxxxxxxxxx |xxxxxxxxxxxxx |      8388976 |      8388976 |      8388976 |
bpred_bimod.ras_hits.PP                       8560 |         8560 |         8560 |xxxxxxxxxxxxx |xxxxxxxxxxxxx |xxxxxxxxxxxxx |xxxxxxxxxxxxx |        16752 |        16752 |        16752 |xxxxxxxxxxxxx |xxxxxxxxxxxxx |xxxxxxxxxxxxx |xxxxxxxxxxxxx |        33136 |        33136 |        33136 |xxxxxxxxxxxxx |xxxxxxxxxxxxx |xxxxxxxxxxxxx |xxxxxxxxxxxxx |        65904 |        65904 |        65904 |xxxxxxxxxxxxx |xxxxxxxxxxxxx |xxxxxxxxxxxxx |xxxxxxxxxxxxx |       131440 |       131440 |       131440 |xxxxxxxxxxxxx |xxxxxxxxxxxxx |xxxxxxxxxxxxx |xxxxxxxxxxxxx |       262512 |       262512 |       262512 |xxxxxxxxxxxxx |xxxxxxxxxxxxx |xxxxxxxxxxxxx |xxxxxxxxxxxxx |       524656 |       524656 |       524656 |xxxxxxxxxxxxx |xxxxxxxxxxxxx |xxxxxxxxxxxxx |xxxxxxxxxxxxx |      1048944 |      1048944 |      1048944 |xxxxxxxxxxxxx |xxxxxxxxxxxxx |xxxxxxxxxxxxx |xxxxxxxxxxxxx |      2097520 |      2097520 |      2097520 |xxxxxxxxxxxxx |xxxxxxxxxxxxx |xxxxxxxxxxxxx |xxxxxxxxxxxxx |      4194672 |      4194672 |      4194672 |xxxxxxxxxxxxx |xxxxxxxxxxxxx |xxxxxxxxxxxxx |xxxxxxxxxxxxx |      8388976 |      8388976 |      8388976 |
bpred_bimod.ras_rate.PP                     1.0000 |       1.0000 |       1.0000 |xxxxxxxxxxxxx |xxxxxxxxxxxxx |xxxxxxxxxxxxx |xxxxxxxxxxxxx |       1.0000 |       1.0000 |       1.0000 |xxxxxxxxxxxxx |xxxxxxxxxxxxx |xxxxxxxxxxxxx |xxxxxxxxxxxxx |       1.0000 |       1.0000 |       1.0000 |xxxxxxxxxxxxx |xxxxxxxxxxxxx |xxxxxxxxxxxxx |xxxxxxxxxxxxx |       1.0000 |       1.0000 |       1.0000 |xxxxxxxxxxxxx |xxxxxxxxxxxxx |xxxxxxxxxxxxx |xxxxxxxxxxxxx |       1.0000 |       1.0000 |       1.0000 |xxxxxxxxxxxxx |xxxxxxxxxxxxx |xxxxxxxxxxxxx |xxxxxxxxxxxxx |       1.0000 |       1.0000 |       1.0000 |xxxxxxxxxxxxx |xxxxxxxxxxxxx |xxxxxxxxxxxxx |xxxxxxxxxxxxx |       1.0000 |       1.0000 |       1.0000 |xxxxxxxxxxxxx |xxxxxxxxxxxxx |xxxxxxxxxxxxx |xxxxxxxxxxxxx |       1.0000 |       1.0000 |       1.0000 |xxxxxxxxxxxxx |xxxxxxxxxxxxx |xxxxxxxxxxxxx |xxxxxxxxxxxxx |       1.0000 |       1.0000 |       1.0000 |xxxxxxxxxxxxx |xxxxxxxxxxxxx |xxxxxxxxxxxxx |xxxxxxxxxxxxx |       1.0000 |       1.0000 |       1.0000 |xxxxxxxxxxxxx |xxxxxxxxxxxxx |xxxxxxxxxxxxx |xxxxxxxxxxxxx |       1.0000 |       1.0000 |       1.0000 |
bpred_2lev.lookups                   xxxxxxxxxxxxx |xxxxxxxxxxxxx |xxxxxxxxxxxxx |       108415 |       108415 |       108415 |       108415 |xxxxxxxxxxxxx |xxxxxxxxxxxxx |xxxxxxxxxxxxx |       228673 |       228673 |       228673 |       228673 |xxxxxxxxxxxxx |xxxxxxxxxxxxx |xxxxxxxxxxxxx |       477516 |       477516 |       477516 |       477516 |xxxxxxxxxxxxx |xxxxxxxxxxxxx |xxxxxxxxxxxxx |      1000721 |      1000721 |      1000721 |      1000721 |xxxxxxxxxxxxx |xxxxxxxxxxxxx |xxxxxxxxxxxxx |      2108060 |      2108060 |      2108060 |      2108060 |xxxxxxxxxxxxx |xxxxxxxxxxxxx |xxxxxxxxxxxxx |      4483918 |      4483918 |      4483918 |      4483918 |xxxxxxxxxxxxx |xxxxxxxxxxxxx |xxxxxxxxxxxxx |      9289638 |      9289638 |      9289638 |      9289638 |xxxxxxxxxxxxx |xxxxxxxxxxxxx |xxxxxxxxxxxxx |     19663247 |     19663247 |     19663247 |     19663247 |xxxxxxxxxxxxx |xxxxxxxxxxxxx |xxxxxxxxxxxxx |     40721450 |     40721450 |     40721450 |     40721450 |xxxxxxxxxxxxx |xxxxxxxxxxxxx |xxxxxxxxxxxxx |     85041024 |     85041024 |     85041024 |     85041024 |xxxxxxxxxxxxx |xxxxxxxxxxxxx |xxxxxxxxxxxxx |    175640563 |    175640563 |    175640563 |    175640563 |
[...]
bpred_2lev.retstack_pushes           xxxxxxxxxxxxx |xxxxxxxxxxxxx |xxxxxxxxxxxxx |         8562 |         8562 |         8562 |         8562 |xxxxxxxxxxxxx |xxxxxxxxxxxxx |xxxxxxxxxxxxx |        16754 |        16754 |        16754 |        16754 |xxxxxxxxxxxxx |xxxxxxxxxxxxx |xxxxxxxxxxxxx |        33138 |        33138 |        33138 |        33138 |xxxxxxxxxxxxx |xxxxxxxxxxxxx |xxxxxxxxxxxxx |        65906 |        65906 |        65906 |        65906 |xxxxxxxxxxxxx |xxxxxxxxxxxxx |xxxxxxxxxxxxx |       131442 |       131442 |       131442 |       131442 |xxxxxxxxxxxxx |xxxxxxxxxxxxx |xxxxxxxxxxxxx |       262514 |       262514 |       262514 |       262514 |xxxxxxxxxxxxx |xxxxxxxxxxxxx |xxxxxxxxxxxxx |       524658 |       524658 |       524658 |       524658 |xxxxxxxxxxxxx |xxxxxxxxxxxxx |xxxxxxxxxxxxx |      1048946 |      1048946 |      1048946 |      1048946 |xxxxxxxxxxxxx |xxxxxxxxxxxxx |xxxxxxxxxxxxx |      2097522 |      2097522 |      2097522 |      2097522 |xxxxxxxxxxxxx |xxxxxxxxxxxxx |xxxxxxxxxxxxx |      4194674 |      4194674 |      4194674 |      4194674 |xxxxxxxxxxxxx |xxxxxxxxxxxxx |xxxxxxxxxxxxx |      8388978 |      8388978 |      8388978 |      8388978 |
bpred_2lev.retstack_pops             xxxxxxxxxxxxx |xxxxxxxxxxxxx |xxxxxxxxxxxxx |         8560 |         8560 |         8560 |         8560 |xxxxxxxxxxxxx |xxxxxxxxxxxxx |xxxxxxxxxxxxx |        16752 |        16752 |        16752 |        16752 |xxxxxxxxxxxxx |xxxxxxxxxxxxx |xxxxxxxxxxxxx |        33136 |        33136 |        33136 |        33136 |xxxxxxxxxxxxx |xxxxxxxxxxxxx |xxxxxxxxxxxxx |        65904 |        65904 |        65904 |        65904 |xxxxxxxxxxxxx |xxxxxxxxxxxxx |xxxxxxxxxxxxx |       131440 |       131440 |       131440 |       131440 |xxxxxxxxxxxxx |xxxxxxxxxxxxx |xxxxxxxxxxxxx |       262512 |       262512 |       262512 |       262512 |xxxxxxxxxxxxx |xxxxxxxxxxxxx |xxxxxxxxxxxxx |       524656 |       524656 |       524656 |       524656 |xxxxxxxxxxxxx |xxxxxxxxxxxxx |xxxxxxxxxxxxx |      1048944 |      1048944 |      1048944 |      1048944 |xxxxxxxxxxxxx |xxxxxxxxxxxxx |xxxxxxxxxxxxx |      2097520 |      2097520 |      2097520 |      2097520 |xxxxxxxxxxxxx |xxxxxxxxxxxxx |xxxxxxxxxxxxx |      4194672 |      4194672 |      4194672 |      4194672 |xxxxxxxxxxxxx |xxxxxxxxxxxxx |xxxxxxxxxxxxx |      8388976 |      8388976 |      8388976 |      8388976 |
bpred_2lev.used_ras.PP               xxxxxxxxxxxxx |xxxxxxxxxxxxx |xxxxxxxxxxxxx |         8560 |         8560 |         8560 |         8560 |xxxxxxxxxxxxx |xxxxxxxxxxxxx |xxxxxxxxxxxxx |        16752 |        16752 |        16752 |        16752 |xxxxxxxxxxxxx |xxxxxxxxxxxxx |xxxxxxxxxxxxx |        33136 |        33136 |        33136 |        33136 |xxxxxxxxxxxxx |xxxxxxxxxxxxx |xxxxxxxxxxxxx |        65904 |        65904 |        65904 |        65904 |xxxxxxxxxxxxx |xxxxxxxxxxxxx |xxxxxxxxxxxxx |       131440 |       131440 |       131440 |       131440 |xxxxxxxxxxxxx |xxxxxxxxxxxxx |xxxxxxxxxxxxx |       262512 |       262512 |       262512 |       262512 |xxxxxxxxxxxxx |xxxxxxxxxxxxx |xxxxxxxxxxxxx |       524656 |       524656 |       524656 |       524656 |xxxxxxxxxxxxx |xxxxxxxxxxxxx |xxxxxxxxxxxxx |      1048944 |      1048944 |      1048944 |      1048944 |xxxxxxxxxxxxx |xxxxxxxxxxxxx |xxxxxxxxxxxxx |      2097520 |      2097520 |      2097520 |      2097520 |xxxxxxxxxxxxx |xxxxxxxxxxxxx |xxxxxxxxxxxxx |      4194672 |      4194672 |      4194672 |      4194672 |xxxxxxxxxxxxx |xxxxxxxxxxxxx |xxxxxxxxxxxxx |      8388976 |      8388976 |      8388976 |      8388976 |
bpred_2lev.ras_hits.PP               xxxxxxxxxxxxx |xxxxxxxxxxxxx |xxxxxxxxxxxxx |         8560 |         8560 |         8560 |         8560 |xxxxxxxxxxxxx |xxxxxxxxxxxxx |xxxxxxxxxxxxx |        16752 |        16752 |        16752 |        16752 |xxxxxxxxxxxxx |xxxxxxxxxxxxx |xxxxxxxxxxxxx |        33136 |        33136 |        33136 |        33136 |xxxxxxxxxxxxx |xxxxxxxxxxxxx |xxxxxxxxxxxxx |        65904 |        65904 |        65904 |        65904 |xxxxxxxxxxxxx |xxxxxxxxxxxxx |xxxxxxxxxxxxx |       131440 |       131440 |       131440 |       131440 |xxxxxxxxxxxxx |xxxxxxxxxxxxx |xxxxxxxxxxxxx |       262512 |       262512 |       262512 |       262512 |xxxxxxxxxxxxx |xxxxxxxxxxxxx |xxxxxxxxxxxxx |       524656 |       524656 |       524656 |       524656 |xxxxxxxxxxxxx |xxxxxxxxxxxxx |xxxxxxxxxxxxx |      1048944 |      1048944 |      1048944 |      1048944 |xxxxxxxxxxxxx |xxxxxxxxxxxxx |xxxxxxxxxxxxx |      2097520 |      2097520 |      2097520 |      2097520 |xxxxxxxxxxxxx |xxxxxxxxxxxxx |xxxxxxxxxxxxx |      4194672 |      4194672 |      4194672 |      4194672 |xxxxxxxxxxxxx |xxxxxxxxxxxxx |xxxxxxxxxxxxx |      8388976 |      8388976 |      8388976 |      8388976 |
bpred_2lev.ras_rate.PP               xxxxxxxxxxxxx |xxxxxxxxxxxxx |xxxxxxxxxxxxx |       1.0000 |       1.0000 |       1.0000 |       1.0000 |xxxxxxxxxxxxx |xxxxxxxxxxxxx |xxxxxxxxxxxxx |       1.0000 |       1.0000 |       1.0000 |       1.0000 |xxxxxxxxxxxxx |xxxxxxxxxxxxx |xxxxxxxxxxxxx |       1.0000 |       1.0000 |       1.0000 |       1.0000 |xxxxxxxxxxxxx |xxxxxxxxxxxxx |xxxxxxxxxxxxx |       1.0000 |       1.0000 |       1.0000 |       1.0000 |xxxxxxxxxxxxx |xxxxxxxxxxxxx |xxxxxxxxxxxxx |       1.0000 |       1.0000 |       1.0000 |       1.0000 |xxxxxxxxxxxxx |xxxxxxxxxxxxx |xxxxxxxxxxxxx |       1.0000 |       1.0000 |       1.0000 |       1.0000 |xxxxxxxxxxxxx |xxxxxxxxxxxxx |xxxxxxxxxxxxx |       1.0000 |       1.0000 |       1.0000 |       1.0000 |xxxxxxxxxxxxx |xxxxxxxxxxxxx |xxxxxxxxxxxxx |       1.0000 |       1.0000 |       1.0000 |       1.0000 |xxxxxxxxxxxxx |xxxxxxxxxxxxx |xxxxxxxxxxxxx |       1.0000 |       1.0000 |       1.0000 |       1.0000 |xxxxxxxxxxxxx |xxxxxxxxxxxxx |xxxxxxxxxxxxx |       1.0000 |       1.0000 |       1.0000 |       1.0000 |xxxxxxxxxxxxx |xxxxxxxxxxxxx |xxxxxxxxxxxxx |       1.0000 |       1.0000 |       1.0000 |       1.0000 |

Command list: 
	sslittle-na-sstrix-gcc -Wall -O3 -funroll-loops -finline-functions  -DRANDOM_SIZE=4096 -DSEED=0 -DSORT=cache_quicksort cache_quicksort1615735953.c simpleMain.c -o cache_quicksort2126948775
	sim-cache -cache:dl1 dl1:256:32:1:l -cache:dl2 dl2:131072:32:1:l -cache:il1 il1:256:32:1:l -cache:il2 dl2 cache_quicksort2126948775
	sim-cache -cache:dl1 dl1:256:32:1:l -cache:dl2 dl2:65536:32:1:l -cache:il1 il1:256:32:1:l -cache:il2 dl2 cache_quicksort2126948775
	sim-cache -cache:dl1 dl1:1:32:256:l -cache:dl2 dl2:1:32:131072:l -cache:il1 il1:1:32:256:l -cache:il2 dl2 cache_quicksort2126948775
	sim-cache -cache:dl1 dl1:1:32:256:l -cache:dl2 dl2:1:32:65536:l -cache:il1 il1:1:32:256:l -cache:il2 dl2 cache_quicksort2126948775
	sim-bpred -bpred bimod -bpred:bimod 512 cache_quicksort2126948775
	sim-bpred -bpred bimod -bpred:bimod 1024 cache_quicksort2126948775
	sim-bpred -bpred bimod -bpred:bimod 2048 cache_quicksort2126948775
	sim-bpred -bpred 2lev -bpred:2lev 1 512 10 1 cache_quicksort2126948775
	sim-bpred -bpred 2lev -bpred:2lev 1 1024 10 1 cache_quicksort2126948775
	sim-bpred -bpred 2lev -bpred:2lev 1 2048 10 1 cache_quicksort2126948775
	sim-bpred -bpred 2lev -bpred:2lev 1 4096 10 1 cache_quicksort2126948775
	sslittle-na-sstrix-gcc -Wall -O3 -funroll-loops -finline-functions  -DRANDOM_SIZE=8192 -DSEED=0 -DSORT=cache_quicksort cache_quicksort1615735953.c simpleMain.c -o cache_quicksort2126948775
	sim-cache -cache:dl1 dl1:256:32:1:l -cache:dl2 dl2:131072:32:1:l -cache:il1 il1:256:32:1:l -cache:il2 dl2 cache_quicksort2126948775
	sim-cache -cache:dl1 dl1:256:32:1:l -cache:dl2 dl2:65536:32:1:l -cache:il1 il1:256:32:1:l -cache:il2 dl2 cache_quicksort2126948775
	sim-cache -cache:dl1 dl1:1:32:256:l -cache:dl2 dl2:1:32:131072:l -cache:il1 il1:1:32:256:l -cache:il2 dl2 cache_quicksort2126948775
	sim-cache -cache:dl1 dl1:1:32:256:l -cache:dl2 dl2:1:32:65536:l -cache:il1 il1:1:32:256:l -cache:il2 dl2 cache_quicksort2126948775
	sim-bpred -bpred bimod -bpred:bimod 512 cache_quicksort2126948775
	sim-bpred -bpred bimod -bpred:bimod 1024 cache_quicksort2126948775
	sim-bpred -bpred bimod -bpred:bimod 2048 cache_quicksort2126948775
	sim-bpred -bpred 2lev -bpred:2lev 1 512 10 1 cache_quicksort2126948775
	sim-bpred -bpred 2lev -bpred:2lev 1 1024 10 1 cache_quicksort2126948775
	sim-bpred -bpred 2lev -bpred:2lev 1 2048 10 1 cache_quicksort2126948775
	sim-bpred -bpred 2lev -bpred:2lev 1 4096 10 1 cache_quicksort2126948775
	sslittle-na-sstrix-gcc -Wall -O3 -funroll-loops -finline-functions  -DRANDOM_SIZE=16384 -DSEED=0 -DSORT=cache_quicksort cache_quicksort1615735953.c simpleMain.c -o cache_quicksort2126948775
	sim-cache -cache:dl1 dl1:256:32:1:l -cache:dl2 dl2:131072:32:1:l -cache:il1 il1:256:32:1:l -cache:il2 dl2 cache_quicksort2126948775
	sim-cache -cache:dl1 dl1:256:32:1:l -cache:dl2 dl2:65536:32:1:l -cache:il1 il1:256:32:1:l -cache:il2 dl2 cache_quicksort2126948775
	sim-cache -cache:dl1 dl1:1:32:256:l -cache:dl2 dl2:1:32:131072:l -cache:il1 il1:1:32:256:l -cache:il2 dl2 cache_quicksort2126948775
	sim-cache -cache:dl1 dl1:1:32:256:l -cache:dl2 dl2:1:32:65536:l -cache:il1 il1:1:32:256:l -cache:il2 dl2 cache_quicksort2126948775
	sim-bpred -bpred bimod -bpred:bimod 512 cache_quicksort2126948775
	sim-bpred -bpred bimod -bpred:bimod 1024 cache_quicksort2126948775
	sim-bpred -bpred bimod -bpred:bimod 2048 cache_quicksort2126948775
	sim-bpred -bpred 2lev -bpred:2lev 1 512 10 1 cache_quicksort2126948775
	sim-bpred -bpred 2lev -bpred:2lev 1 1024 10 1 cache_quicksort2126948775
	sim-bpred -bpred 2lev -bpred:2lev 1 2048 10 1 cache_quicksort2126948775
	sim-bpred -bpred 2lev -bpred:2lev 1 4096 10 1 cache_quicksort2126948775
	sslittle-na-sstrix-gcc -Wall -O3 -funroll-loops -finline-functions  -DRANDOM_SIZE=32768 -DSEED=0 -DSORT=cache_quicksort cache_quicksort1615735953.c simpleMain.c -o cache_quicksort2126948775
	sim-cache -cache:dl1 dl1:256:32:1:l -cache:dl2 dl2:131072:32:1:l -cache:il1 il1:256:32:1:l -cache:il2 dl2 cache_quicksort2126948775
	sim-cache -cache:dl1 dl1:256:32:1:l -cache:dl2 dl2:65536:32:1:l -cache:il1 il1:256:32:1:l -cache:il2 dl2 cache_quicksort2126948775
	sim-cache -cache:dl1 dl1:1:32:256:l -cache:dl2 dl2:1:32:131072:l -cache:il1 il1:1:32:256:l -cache:il2 dl2 cache_quicksort2126948775
	sim-cache -cache:dl1 dl1:1:32:256:l -cache:dl2 dl2:1:32:65536:l -cache:il1 il1:1:32:256:l -cache:il2 dl2 cache_quicksort2126948775
	sim-bpred -bpred bimod -bpred:bimod 512 cache_quicksort2126948775
	sim-bpred -bpred bimod -bpred:bimod 1024 cache_quicksort2126948775
	sim-bpred -bpred bimod -bpred:bimod 2048 cache_quicksort2126948775
	sim-bpred -bpred 2lev -bpred:2lev 1 512 10 1 cache_quicksort2126948775
	sim-bpred -bpred 2lev -bpred:2lev 1 1024 10 1 cache_quicksort2126948775
	sim-bpred -bpred 2lev -bpred:2lev 1 2048 10 1 cache_quicksort2126948775
	sim-bpred -bpred 2lev -bpred:2lev 1 4096 10 1 cache_quicksort2126948775
	sslittle-na-sstrix-gcc -Wall -O3 -funroll-loops -finline-functions  -DRANDOM_SIZE=65536 -DSEED=0 -DSORT=cache_quicksort cache_quicksort1615735953.c simpleMain.c -o cache_quicksort2126948775
	sim-cache -cache:dl1 dl1:256:32:1:l -cache:dl2 dl2:131072:32:1:l -cache:il1 il1:256:32:1:l -cache:il2 dl2 cache_quicksort2126948775
	sim-cache -cache:dl1 dl1:256:32:1:l -cache:dl2 dl2:65536:32:1:l -cache:il1 il1:256:32:1:l -cache:il2 dl2 cache_quicksort2126948775
	sim-cache -cache:dl1 dl1:1:32:256:l -cache:dl2 dl2:1:32:131072:l -cache:il1 il1:1:32:256:l -cache:il2 dl2 cache_quicksort2126948775
	sim-cache -cache:dl1 dl1:1:32:256:l -cache:dl2 dl2:1:32:65536:l -cache:il1 il1:1:32:256:l -cache:il2 dl2 cache_quicksort2126948775
	sim-bpred -bpred bimod -bpred:bimod 512 cache_quicksort2126948775
	sim-bpred -bpred bimod -bpred:bimod 1024 cache_quicksort2126948775
	sim-bpred -bpred bimod -bpred:bimod 2048 cache_quicksort2126948775
	sim-bpred -bpred 2lev -bpred:2lev 1 512 10 1 cache_quicksort2126948775
	sim-bpred -bpred 2lev -bpred:2lev 1 1024 10 1 cache_quicksort2126948775
	sim-bpred -bpred 2lev -bpred:2lev 1 2048 10 1 cache_quicksort2126948775
	sim-bpred -bpred 2lev -bpred:2lev 1 4096 10 1 cache_quicksort2126948775
	sslittle-na-sstrix-gcc -Wall -O3 -funroll-loops -finline-functions  -DRANDOM_SIZE=131072 -DSEED=0 -DSORT=cache_quicksort cache_quicksort1615735953.c simpleMain.c -o cache_quicksort2126948775
	sim-cache -cache:dl1 dl1:256:32:1:l -cache:dl2 dl2:131072:32:1:l -cache:il1 il1:256:32:1:l -cache:il2 dl2 cache_quicksort2126948775
	sim-cache -cache:dl1 dl1:256:32:1:l -cache:dl2 dl2:65536:32:1:l -cache:il1 il1:256:32:1:l -cache:il2 dl2 cache_quicksort2126948775
	sim-cache -cache:dl1 dl1:1:32:256:l -cache:dl2 dl2:1:32:131072:l -cache:il1 il1:1:32:256:l -cache:il2 dl2 cache_quicksort2126948775
	sim-cache -cache:dl1 dl1:1:32:256:l -cache:dl2 dl2:1:32:65536:l -cache:il1 il1:1:32:256:l -cache:il2 dl2 cache_quicksort2126948775
	sim-bpred -bpred bimod -bpred:bimod 512 cache_quicksort2126948775
	sim-bpred -bpred bimod -bpred:bimod 1024 cache_quicksort2126948775
	sim-bpred -bpred bimod -bpred:bimod 2048 cache_quicksort2126948775
	sim-bpred -bpred 2lev -bpred:2lev 1 512 10 1 cache_quicksort2126948775
	sim-bpred -bpred 2lev -bpred:2lev 1 1024 10 1 cache_quicksort2126948775
	sim-bpred -bpred 2lev -bpred:2lev 1 2048 10 1 cache_quicksort2126948775
	sim-bpred -bpred 2lev -bpred:2lev 1 4096 10 1 cache_quicksort2126948775
	sslittle-na-sstrix-gcc -Wall -O3 -funroll-loops -finline-functions  -DRANDOM_SIZE=262144 -DSEED=0 -DSORT=cache_quicksort cache_quicksort1615735953.c simpleMain.c -o cache_quicksort2126948775
	sim-cache -cache:dl1 dl1:256:32:1:l -cache:dl2 dl2:131072:32:1:l -cache:il1 il1:256:32:1:l -cache:il2 dl2 cache_quicksort2126948775
	sim-cache -cache:dl1 dl1:256:32:1:l -cache:dl2 dl2:65536:32:1:l -cache:il1 il1:256:32:1:l -cache:il2 dl2 cache_quicksort2126948775
	sim-cache -cache:dl1 dl1:1:32:256:l -cache:dl2 dl2:1:32:131072:l -cache:il1 il1:1:32:256:l -cache:il2 dl2 cache_quicksort2126948775
	sim-cache -cache:dl1 dl1:1:32:256:l -cache:dl2 dl2:1:32:65536:l -cache:il1 il1:1:32:256:l -cache:il2 dl2 cache_quicksort2126948775
	sim-bpred -bpred bimod -bpred:bimod 512 cache_quicksort2126948775
	sim-bpred -bpred bimod -bpred:bimod 1024 cache_quicksort2126948775
	sim-bpred -bpred bimod -bpred:bimod 2048 cache_quicksort2126948775
	sim-bpred -bpred 2lev -bpred:2lev 1 512 10 1 cache_quicksort2126948775
	sim-bpred -bpred 2lev -bpred:2lev 1 1024 10 1 cache_quicksort2126948775
	sim-bpred -bpred 2lev -bpred:2lev 1 2048 10 1 cache_quicksort2126948775
	sim-bpred -bpred 2lev -bpred:2lev 1 4096 10 1 cache_quicksort2126948775
	sslittle-na-sstrix-gcc -Wall -O3 -funroll-loops -finline-functions  -DRANDOM_SIZE=524288 -DSEED=0 -DSORT=cache_quicksort cache_quicksort1615735953.c simpleMain.c -o cache_quicksort2126948775
	sim-cache -cache:dl1 dl1:256:32:1:l -cache:dl2 dl2:131072:32:1:l -cache:il1 il1:256:32:1:l -cache:il2 dl2 cache_quicksort2126948775
	sim-cache -cache:dl1 dl1:256:32:1:l -cache:dl2 dl2:65536:32:1:l -cache:il1 il1:256:32:1:l -cache:il2 dl2 cache_quicksort2126948775
	sim-cache -cache:dl1 dl1:1:32:256:l -cache:dl2 dl2:1:32:131072:l -cache:il1 il1:1:32:256:l -cache:il2 dl2 cache_quicksort2126948775
	sim-cache -cache:dl1 dl1:1:32:256:l -cache:dl2 dl2:1:32:65536:l -cache:il1 il1:1:32:256:l -cache:il2 dl2 cache_quicksort2126948775
	sim-bpred -bpred bimod -bpred:bimod 512 cache_quicksort2126948775
	sim-bpred -bpred bimod -bpred:bimod 1024 cache_quicksort2126948775
	sim-bpred -bpred bimod -bpred:bimod 2048 cache_quicksort2126948775
	sim-bpred -bpred 2lev -bpred:2lev 1 512 10 1 cache_quicksort2126948775
	sim-bpred -bpred 2lev -bpred:2lev 1 1024 10 1 cache_quicksort2126948775
	sim-bpred -bpred 2lev -bpred:2lev 1 2048 10 1 cache_quicksort2126948775
	sim-bpred -bpred 2lev -bpred:2lev 1 4096 10 1 cache_quicksort2126948775
	sslittle-na-sstrix-gcc -Wall -O3 -funroll-loops -finline-functions  -DRANDOM_SIZE=1048576 -DSEED=0 -DSORT=cache_quicksort cache_quicksort1615735953.c simpleMain.c -o cache_quicksort2126948775
	sim-cache -cache:dl1 dl1:256:32:1:l -cache:dl2 dl2:131072:32:1:l -cache:il1 il1:256:32:1:l -cache:il2 dl2 cache_quicksort2126948775
	sim-cache -cache:dl1 dl1:256:32:1:l -cache:dl2 dl2:65536:32:1:l -cache:il1 il1:256:32:1:l -cache:il2 dl2 cache_quicksort2126948775
	sim-cache -cache:dl1 dl1:1:32:256:l -cache:dl2 dl2:1:32:131072:l -cache:il1 il1:1:32:256:l -cache:il2 dl2 cache_quicksort2126948775
	sim-cache -cache:dl1 dl1:1:32:256:l -cache:dl2 dl2:1:32:65536:l -cache:il1 il1:1:32:256:l -cache:il2 dl2 cache_quicksort2126948775
	sim-bpred -bpred bimod -bpred:bimod 512 cache_quicksort2126948775
	sim-bpred -bpred bimod -bpred:bimod 1024 cache_quicksort2126948775
	sim-bpred -bpred bimod -bpred:bimod 2048 cache_quicksort2126948775
	sim-bpred -bpred 2lev -bpred:2lev 1 512 10 1 cache_quicksort2126948775
	sim-bpred -bpred 2lev -bpred:2lev 1 1024 10 1 cache_quicksort2126948775
	sim-bpred -bpred 2lev -bpred:2lev 1 2048 10 1 cache_quicksort2126948775
	sim-bpred -bpred 2lev -bpred:2lev 1 4096 10 1 cache_quicksort2126948775
	sslittle-na-sstrix-gcc -Wall -O3 -funroll-loops -finline-functions  -DRANDOM_SIZE=2097152 -DSEED=0 -DSORT=cache_quicksort cache_quicksort1615735953.c simpleMain.c -o cache_quicksort2126948775
	sim-cache -cache:dl1 dl1:256:32:1:l -cache:dl2 dl2:131072:32:1:l -cache:il1 il1:256:32:1:l -cache:il2 dl2 cache_quicksort2126948775
	sim-cache -cache:dl1 dl1:256:32:1:l -cache:dl2 dl2:65536:32:1:l -cache:il1 il1:256:32:1:l -cache:il2 dl2 cache_quicksort2126948775
	sim-cache -cache:dl1 dl1:1:32:256:l -cache:dl2 dl2:1:32:131072:l -cache:il1 il1:1:32:256:l -cache:il2 dl2 cache_quicksort2126948775
	sim-cache -cache:dl1 dl1:1:32:256:l -cache:dl2 dl2:1:32:65536:l -cache:il1 il1:1:32:256:l -cache:il2 dl2 cache_quicksort2126948775
	sim-bpred -bpred bimod -bpred:bimod 512 cache_quicksort2126948775
	sim-bpred -bpred bimod -bpred:bimod 1024 cache_quicksort2126948775
	sim-bpred -bpred bimod -bpred:bimod 2048 cache_quicksort2126948775
	sim-bpred -bpred 2lev -bpred:2lev 1 512 10 1 cache_quicksort2126948775
	sim-bpred -bpred 2lev -bpred:2lev 1 1024 10 1 cache_quicksort2126948775
	sim-bpred -bpred 2lev -bpred:2lev 1 2048 10 1 cache_quicksort2126948775
	sim-bpred -bpred 2lev -bpred:2lev 1 4096 10 1 cache_quicksort2126948775
	sslittle-na-sstrix-gcc -Wall -O3 -funroll-loops -finline-functions  -DRANDOM_SIZE=4194304 -DSEED=0 -DSORT=cache_quicksort cache_quicksort1615735953.c simpleMain.c -o cache_quicksort2126948775
	sim-cache -cache:dl1 dl1:256:32:1:l -cache:dl2 dl2:131072:32:1:l -cache:il1 il1:256:32:1:l -cache:il2 dl2 cache_quicksort2126948775
	sim-cache -cache:dl1 dl1:256:32:1:l -cache:dl2 dl2:65536:32:1:l -cache:il1 il1:256:32:1:l -cache:il2 dl2 cache_quicksort2126948775
	sim-cache -cache:dl1 dl1:1:32:256:l -cache:dl2 dl2:1:32:131072:l -cache:il1 il1:1:32:256:l -cache:il2 dl2 cache_quicksort2126948775
	sim-cache -cache:dl1 dl1:1:32:256:l -cache:dl2 dl2:1:32:65536:l -cache:il1 il1:1:32:256:l -cache:il2 dl2 cache_quicksort2126948775
	sim-bpred -bpred bimod -bpred:bimod 512 cache_quicksort2126948775
	sim-bpred -bpred bimod -bpred:bimod 1024 cache_quicksort2126948775
	sim-bpred -bpred bimod -bpred:bimod 2048 cache_quicksort2126948775
	sim-bpred -bpred 2lev -bpred:2lev 1 512 10 1 cache_quicksort2126948775
	sim-bpred -bpred 2lev -bpred:2lev 1 1024 10 1 cache_quicksort2126948775
	sim-bpred -bpred 2lev -bpred:2lev 1 2048 10 1 cache_quicksort2126948775
	sim-bpred -bpred 2lev -bpred:2lev 1 4096 10 1 cache_quicksort2126948775
