Sat Mar 20 20:36:23 2004
Run as: "./simple -c  do_nothing"
-------------------------------------------------------------------------------------------------
sim-cache                                     4096 |         4096 |         4096 |         4096 |         8192 |         8192 |         8192 |         8192 |        16384 |        16384 |        16384 |        16384 |        32768 |        32768 |        32768 |        32768 |        65536 |        65536 |        65536 |        65536 |       131072 |       131072 |       131072 |       131072 |       262144 |       262144 |       262144 |       262144 |       524288 |       524288 |       524288 |       524288 |      1048576 |      1048576 |      1048576 |      1048576 |      2097152 |      2097152 |      2097152 |      2097152 |      4194304 |      4194304 |      4194304 |      4194304 |
-cache:dl1 dl1:256:32:1:l -cache:dl2 dl2:131072:32:1:l -cache:il1 il1:256:32:1:l -cache:il2 dl2
-cache:dl1 dl1:256:32:1:l -cache:dl2 dl2:65536:32:1:l -cache:il1 il1:256:32:1:l -cache:il2 dl2
-cache:dl1 dl1:1:32:256:l -cache:dl2 dl2:1:32:131072:l -cache:il1 il1:1:32:256:l -cache:il2 dl2
-cache:dl1 dl1:1:32:256:l -cache:dl2 dl2:1:32:65536:l -cache:il1 il1:1:32:256:l -cache:il2 dl2
-------------------------------------------------------------------------------------------------
sim_num_insn                                145482 |       145482 |       145482 |       145482 |       274906 |       274906 |       274906 |       274906 |       533748 |       533748 |       533748 |       533748 |      1051434 |      1051434 |      1051434 |      1051434 |      2086797 |      2086797 |      2086797 |      2086797 |      4157524 |      4157524 |      4157524 |      4157524 |      8298976 |      8298976 |      8298976 |      8298976 |     16581880 |     16581880 |     16581880 |     16581880 |     33147691 |     33147691 |     33147691 |     33147691 |     66279310 |     66279310 |     66279310 |     66279310 |    132542548 |    132542548 |    132542548 |    132542548 |
sim_num_refs                                 69751 |        69751 |        69751 |        69751 |       131719 |       131719 |       131719 |       131719 |       255655 |       255655 |       255655 |       255655 |       503533 |       503533 |       503533 |       503533 |       999281 |       999281 |       999281 |       999281 |      1990777 |      1990777 |      1990777 |      1990777 |      3973769 |      3973769 |      3973769 |      3973769 |      7939753 |      7939753 |      7939753 |      7939753 |     15871725 |     15871725 |     15871725 |     15871725 |     31735665 |     31735665 |     31735665 |     31735665 |     63463545 |     63463545 |     63463545 |     63463545 |
sim_elapsed_time                                 1 |            1 |           13 |            6 |            1 |            1 |           18 |           10 |            1 |            1 |           29 |           14 |            1 |            1 |           49 |           25 |            1 |            2 |           92 |           45 |            3 |            3 |          168 |           81 |            5 |            5 |          305 |          136 |           11 |           11 |          526 |          182 |           21 |           21 |          731 |          191 |           42 |           42 |          720 |          212 |           86 |           86 |          778 |          276 |
sim_inst_rate                          145482.0000 |  145482.0000 |   11190.9231 |   24247.0000 |  274906.0000 |  274906.0000 |   15272.5556 |   27490.6000 |  533748.0000 |  533748.0000 |   18405.1034 |   38124.8571 | 1051434.0000 | 1051434.0000 |   21457.8367 |   42057.3600 | 2086797.0000 | 1043398.5000 |   22682.5761 |   46373.2667 | 1385841.3333 | 1385841.3333 |   24747.1667 |   51327.4568 | 1659795.2000 | 1659795.2000 |   27209.7574 |   61021.8824 | 1507443.6364 | 1507443.6364 |   31524.4867 |   91109.2308 | 1578461.4762 | 1578461.4762 |   45345.6785 |  173548.1204 | 1578078.8095 | 1578078.8095 |   92054.5972 |  312638.2547 | 1541192.4186 | 1541192.4186 |  170363.1722 |  480226.6232 |
il1.accesses                                145482 |       145482 |       145482 |       145482 |       274906 |       274906 |       274906 |       274906 |       533748 |       533748 |       533748 |       533748 |      1051434 |      1051434 |      1051434 |      1051434 |      2086797 |      2086797 |      2086797 |      2086797 |      4157524 |      4157524 |      4157524 |      4157524 |      8298976 |      8298976 |      8298976 |      8298976 |     16581880 |     16581880 |     16581880 |     16581880 |     33147691 |     33147691 |     33147691 |     33147691 |     66279310 |     66279310 |     66279310 |     66279310 |    132542548 |    132542548 |    132542548 |    132542548 |
il1.hits                                    145115 |       145115 |       145174 |       145174 |       274538 |       274538 |       274597 |       274597 |       533377 |       533377 |       533443 |       533443 |      1051062 |      1051062 |      1051128 |      1051128 |      2086425 |      2086425 |      2086491 |      2086491 |      4157152 |      4157152 |      4157218 |      4157218 |      8298604 |      8298604 |      8298670 |      8298670 |     16581508 |     16581508 |     16581574 |     16581574 |     33147319 |     33147319 |     33147385 |     33147385 |     66278938 |     66278938 |     66279004 |     66279004 |    132542176 |    132542176 |    132542242 |    132542242 |
il1.misses                                     367 |          367 |          308 |          308 |          368 |          368 |          309 |          309 |          371 |          371 |          305 |          305 |          372 |          372 |          306 |          306 |          372 |          372 |          306 |          306 |          372 |          372 |          306 |          306 |          372 |          372 |          306 |          306 |          372 |          372 |          306 |          306 |          372 |          372 |          306 |          306 |          372 |          372 |          306 |          306 |          372 |          372 |          306 |          306 |
il1.replacements                               191 |          191 |           52 |           52 |          192 |          192 |           53 |           53 |          199 |          199 |           49 |           49 |          199 |          199 |           50 |           50 |          199 |          199 |           50 |           50 |          199 |          199 |           50 |           50 |          199 |          199 |           50 |           50 |          199 |          199 |           50 |           50 |          199 |          199 |           50 |           50 |          199 |          199 |           50 |           50 |          199 |          199 |           50 |           50 |
il1.writebacks                                   0 |            0 |            0 |            0 |            0 |            0 |            0 |            0 |            0 |            0 |            0 |            0 |            0 |            0 |            0 |            0 |            0 |            0 |            0 |            0 |            0 |            0 |            0 |            0 |            0 |            0 |            0 |            0 |            0 |            0 |            0 |            0 |            0 |            0 |            0 |            0 |            0 |            0 |            0 |            0 |            0 |            0 |            0 |            0 |
il1.invalidations                                0 |            0 |            0 |            0 |            0 |            0 |            0 |            0 |            0 |            0 |            0 |            0 |            0 |            0 |            0 |            0 |            0 |            0 |            0 |            0 |            0 |            0 |            0 |            0 |            0 |            0 |            0 |            0 |            0 |            0 |            0 |            0 |            0 |            0 |            0 |            0 |            0 |            0 |            0 |            0 |            0 |            0 |            0 |            0 |
il1.miss_rate                               0.0025 |       0.0025 |       0.0021 |       0.0021 |       0.0013 |       0.0013 |       0.0011 |       0.0011 |       0.0007 |       0.0007 |       0.0006 |       0.0006 |       0.0004 |       0.0004 |       0.0003 |       0.0003 |       0.0002 |       0.0002 |       0.0001 |       0.0001 |       0.0001 |       0.0001 |       0.0001 |       0.0001 |       0.0000 |       0.0000 |       0.0000 |       0.0000 |       0.0000 |       0.0000 |       0.0000 |       0.0000 |       0.0000 |       0.0000 |       0.0000 |       0.0000 |       0.0000 |       0.0000 |       0.0000 |       0.0000 |       0.0000 |       0.0000 |       0.0000 |       0.0000 |
il1.repl_rate                               0.0013 |       0.0013 |       0.0004 |       0.0004 |       0.0007 |       0.0007 |       0.0002 |       0.0002 |       0.0004 |       0.0004 |       0.0001 |       0.0001 |       0.0002 |       0.0002 |       0.0000 |       0.0000 |       0.0001 |       0.0001 |       0.0000 |       0.0000 |       0.0000 |       0.0000 |       0.0000 |       0.0000 |       0.0000 |       0.0000 |       0.0000 |       0.0000 |       0.0000 |       0.0000 |       0.0000 |       0.0000 |       0.0000 |       0.0000 |       0.0000 |       0.0000 |       0.0000 |       0.0000 |       0.0000 |       0.0000 |       0.0000 |       0.0000 |       0.0000 |       0.0000 |
il1.wb_rate                                 0.0000 |       0.0000 |       0.0000 |       0.0000 |       0.0000 |       0.0000 |       0.0000 |       0.0000 |       0.0000 |       0.0000 |       0.0000 |       0.0000 |       0.0000 |       0.0000 |       0.0000 |       0.0000 |       0.0000 |       0.0000 |       0.0000 |       0.0000 |       0.0000 |       0.0000 |       0.0000 |       0.0000 |       0.0000 |       0.0000 |       0.0000 |       0.0000 |       0.0000 |       0.0000 |       0.0000 |       0.0000 |       0.0000 |       0.0000 |       0.0000 |       0.0000 |       0.0000 |       0.0000 |       0.0000 |       0.0000 |       0.0000 |       0.0000 |       0.0000 |       0.0000 |
il1.inv_rate                                0.0000 |       0.0000 |       0.0000 |       0.0000 |       0.0000 |       0.0000 |       0.0000 |       0.0000 |       0.0000 |       0.0000 |       0.0000 |       0.0000 |       0.0000 |       0.0000 |       0.0000 |       0.0000 |       0.0000 |       0.0000 |       0.0000 |       0.0000 |       0.0000 |       0.0000 |       0.0000 |       0.0000 |       0.0000 |       0.0000 |       0.0000 |       0.0000 |       0.0000 |       0.0000 |       0.0000 |       0.0000 |       0.0000 |       0.0000 |       0.0000 |       0.0000 |       0.0000 |       0.0000 |       0.0000 |       0.0000 |       0.0000 |       0.0000 |       0.0000 |       0.0000 |
dl1.accesses                                 69821 |        69821 |        69821 |        69821 |       131789 |       131789 |       131789 |       131789 |       255725 |       255725 |       255725 |       255725 |       503603 |       503603 |       503603 |       503603 |       999351 |       999351 |       999351 |       999351 |      1990847 |      1990847 |      1990847 |      1990847 |      3973839 |      3973839 |      3973839 |      3973839 |      7939823 |      7939823 |      7939823 |      7939823 |     15871795 |     15871795 |     15871795 |     15871795 |     31735735 |     31735735 |     31735735 |     31735735 |     63463615 |     63463615 |     63463615 |     63463615 |
dl1.hits                                     68794 |        68794 |        68867 |        68867 |       130116 |       130116 |       130323 |       130323 |       252674 |       252674 |       253235 |       253235 |       498192 |       498192 |       499065 |       499065 |       988972 |       988972 |       990717 |       990717 |      1970518 |      1970518 |      1974021 |      1974021 |      3933562 |      3933562 |      3940629 |      3940629 |      7859564 |      7859564 |      7873845 |      7873845 |     15711968 |     15711968 |     15740281 |     15740281 |     31416524 |     31416524 |     31473149 |     31473149 |     62825622 |     62825622 |     62938885 |     62938885 |
dl1.misses                                    1027 |         1027 |          954 |          954 |         1673 |         1673 |         1466 |         1466 |         3051 |         3051 |         2490 |         2490 |         5411 |         5411 |         4538 |         4538 |        10379 |        10379 |         8634 |         8634 |        20329 |        20329 |        16826 |        16826 |        40277 |        40277 |        33210 |        33210 |        80259 |        80259 |        65978 |        65978 |       159827 |       159827 |       131514 |       131514 |       319211 |       319211 |       262586 |       262586 |       637993 |       637993 |       524730 |       524730 |
dl1.replacements                               771 |          771 |          698 |          698 |         1417 |         1417 |         1210 |         1210 |         2795 |         2795 |         2234 |         2234 |         5155 |         5155 |         4282 |         4282 |        10123 |        10123 |         8378 |         8378 |        20073 |        20073 |        16570 |        16570 |        40021 |        40021 |        32954 |        32954 |        80003 |        80003 |        65722 |        65722 |       159571 |       159571 |       131258 |       131258 |       318955 |       318955 |       262330 |       262330 |       637737 |       637737 |       524474 |       524474 |
dl1.writebacks                                 761 |          761 |          688 |          688 |         1405 |         1405 |         1200 |         1200 |         2750 |         2750 |         2224 |         2224 |         5094 |         5094 |         4272 |         4272 |        10015 |        10015 |         8368 |         8368 |        19867 |        19867 |        16560 |        16560 |        39617 |        39617 |        32944 |        32944 |        79174 |        79174 |        65712 |        65712 |       157942 |       157942 |       131248 |       131248 |       315711 |       315711 |       262320 |       262320 |       631259 |       631259 |       524464 |       524464 |
dl1.invalidations                                0 |            0 |            0 |            0 |            0 |            0 |            0 |            0 |            0 |            0 |            0 |            0 |            0 |            0 |            0 |            0 |            0 |            0 |            0 |            0 |            0 |            0 |            0 |            0 |            0 |            0 |            0 |            0 |            0 |            0 |            0 |            0 |            0 |            0 |            0 |            0 |            0 |            0 |            0 |            0 |            0 |            0 |            0 |            0 |
dl1.miss_rate                               0.0147 |       0.0147 |       0.0137 |       0.0137 |       0.0127 |       0.0127 |       0.0111 |       0.0111 |       0.0119 |       0.0119 |       0.0097 |       0.0097 |       0.0107 |       0.0107 |       0.0090 |       0.0090 |       0.0104 |       0.0104 |       0.0086 |       0.0086 |       0.0102 |       0.0102 |       0.0085 |       0.0085 |       0.0101 |       0.0101 |       0.0084 |       0.0084 |       0.0101 |       0.0101 |       0.0083 |       0.0083 |       0.0101 |       0.0101 |       0.0083 |       0.0083 |       0.0101 |       0.0101 |       0.0083 |       0.0083 |       0.0101 |       0.0101 |       0.0083 |       0.0083 |
dl1.repl_rate                               0.0110 |       0.0110 |       0.0100 |       0.0100 |       0.0108 |       0.0108 |       0.0092 |       0.0092 |       0.0109 |       0.0109 |       0.0087 |       0.0087 |       0.0102 |       0.0102 |       0.0085 |       0.0085 |       0.0101 |       0.0101 |       0.0084 |       0.0084 |       0.0101 |       0.0101 |       0.0083 |       0.0083 |       0.0101 |       0.0101 |       0.0083 |       0.0083 |       0.0101 |       0.0101 |       0.0083 |       0.0083 |       0.0101 |       0.0101 |       0.0083 |       0.0083 |       0.0101 |       0.0101 |       0.0083 |       0.0083 |       0.0100 |       0.0100 |       0.0083 |       0.0083 |
dl1.wb_rate                                 0.0109 |       0.0109 |       0.0099 |       0.0099 |       0.0107 |       0.0107 |       0.0091 |       0.0091 |       0.0108 |       0.0108 |       0.0087 |       0.0087 |       0.0101 |       0.0101 |       0.0085 |       0.0085 |       0.0100 |       0.0100 |       0.0084 |       0.0084 |       0.0100 |       0.0100 |       0.0083 |       0.0083 |       0.0100 |       0.0100 |       0.0083 |       0.0083 |       0.0100 |       0.0100 |       0.0083 |       0.0083 |       0.0100 |       0.0100 |       0.0083 |       0.0083 |       0.0099 |       0.0099 |       0.0083 |       0.0083 |       0.0099 |       0.0099 |       0.0083 |       0.0083 |
dl1.inv_rate                                0.0000 |       0.0000 |       0.0000 |       0.0000 |       0.0000 |       0.0000 |       0.0000 |       0.0000 |       0.0000 |       0.0000 |       0.0000 |       0.0000 |       0.0000 |       0.0000 |       0.0000 |       0.0000 |       0.0000 |       0.0000 |       0.0000 |       0.0000 |       0.0000 |       0.0000 |       0.0000 |       0.0000 |       0.0000 |       0.0000 |       0.0000 |       0.0000 |       0.0000 |       0.0000 |       0.0000 |       0.0000 |       0.0000 |       0.0000 |       0.0000 |       0.0000 |       0.0000 |       0.0000 |       0.0000 |       0.0000 |       0.0000 |       0.0000 |       0.0000 |       0.0000 |
dl2.accesses                                  2155 |         2155 |         1950 |         1950 |         3446 |         3446 |         2975 |         2975 |         6172 |         6172 |         5019 |         5019 |        10877 |        10877 |         9116 |         9116 |        20766 |        20766 |        17308 |        17308 |        40568 |        40568 |        33692 |        33692 |        80266 |        80266 |        66460 |        66460 |       159805 |       159805 |       131996 |       131996 |       318141 |       318141 |       263068 |       263068 |       635294 |       635294 |       525212 |       525212 |      1269624 |      1269624 |      1049500 |      1049500 |
dl2.hits                                       889 |          889 |          716 |          716 |         1669 |         1669 |         1228 |         1228 |         3374 |         3374 |         2251 |         2251 |         6032 |         6032 |         4299 |         4299 |        11825 |        11825 |         8395 |         8395 |        23435 |        23435 |        16587 |        16587 |        46749 |        46749 |        32971 |        32971 |        93520 |        93423 |        65739 |        65724 |       186223 |       186188 |       131260 |       131260 |       372211 |       372141 |       262332 |       262332 |       744209 |       744069 |       524476 |       524476 |
dl2.misses                                    1266 |         1266 |         1234 |         1234 |         1777 |         1777 |         1747 |         1747 |         2798 |         2798 |         2768 |         2768 |         4845 |         4845 |         4817 |         4817 |         8941 |         8941 |         8913 |         8913 |        17133 |        17133 |        17105 |        17105 |        33517 |        33517 |        33489 |        33489 |        66285 |        66382 |        66257 |        66272 |       131918 |       131953 |       131808 |       131808 |       263083 |       263153 |       262880 |       262880 |       525415 |       525555 |       525024 |       525024 |
dl2.replacements                               212 |          212 |            0 |            0 |          209 |          209 |            0 |            0 |          210 |          210 |            0 |            0 |          208 |          208 |            0 |            0 |          208 |          208 |            0 |            0 |          208 |          208 |            0 |            0 |          208 |          208 |            0 |            0 |          208 |          846 |            0 |          736 |          846 |        66417 |          736 |        66272 |       132011 |       197617 |       131808 |       197344 |       394343 |       460019 |       393952 |       459488 |
dl2.writebacks                                  41 |           41 |            0 |            0 |           39 |           39 |            0 |            0 |           37 |           37 |            0 |            0 |           35 |           35 |            0 |            0 |           35 |           35 |            0 |            0 |           35 |           35 |            0 |            0 |           35 |           35 |            0 |            0 |           35 |          622 |            0 |          642 |          622 |        66193 |          642 |        66178 |       131785 |       197391 |       131714 |       197250 |       394101 |       459777 |       393858 |       459394 |
dl2.invalidations                                0 |            0 |            0 |            0 |            0 |            0 |            0 |            0 |            0 |            0 |            0 |            0 |            0 |            0 |            0 |            0 |            0 |            0 |            0 |            0 |            0 |            0 |            0 |            0 |            0 |            0 |            0 |            0 |            0 |            0 |            0 |            0 |            0 |            0 |            0 |            0 |            0 |            0 |            0 |            0 |            0 |            0 |            0 |            0 |
dl2.miss_rate                               0.5875 |       0.5875 |       0.6328 |       0.6328 |       0.5157 |       0.5157 |       0.5872 |       0.5872 |       0.4533 |       0.4533 |       0.5515 |       0.5515 |       0.4454 |       0.4454 |       0.5284 |       0.5284 |       0.4306 |       0.4306 |       0.5150 |       0.5150 |       0.4223 |       0.4223 |       0.5077 |       0.5077 |       0.4176 |       0.4176 |       0.5039 |       0.5039 |       0.4148 |       0.4154 |       0.5020 |       0.5021 |       0.4147 |       0.4148 |       0.5010 |       0.5010 |       0.4141 |       0.4142 |       0.5005 |       0.5005 |       0.4138 |       0.4139 |       0.5003 |       0.5003 |
dl2.repl_rate                               0.0984 |       0.0984 |       0.0000 |       0.0000 |       0.0607 |       0.0607 |       0.0000 |       0.0000 |       0.0340 |       0.0340 |       0.0000 |       0.0000 |       0.0191 |       0.0191 |       0.0000 |       0.0000 |       0.0100 |       0.0100 |       0.0000 |       0.0000 |       0.0051 |       0.0051 |       0.0000 |       0.0000 |       0.0026 |       0.0026 |       0.0000 |       0.0000 |       0.0013 |       0.0053 |       0.0000 |       0.0056 |       0.0027 |       0.2088 |       0.0028 |       0.2519 |       0.2078 |       0.3111 |       0.2510 |       0.3757 |       0.3106 |       0.3623 |       0.3754 |       0.4378 |
dl2.wb_rate                                 0.0190 |       0.0190 |       0.0000 |       0.0000 |       0.0113 |       0.0113 |       0.0000 |       0.0000 |       0.0060 |       0.0060 |       0.0000 |       0.0000 |       0.0032 |       0.0032 |       0.0000 |       0.0000 |       0.0017 |       0.0017 |       0.0000 |       0.0000 |       0.0009 |       0.0009 |       0.0000 |       0.0000 |       0.0004 |       0.0004 |       0.0000 |       0.0000 |       0.0002 |       0.0039 |       0.0000 |       0.0049 |       0.0020 |       0.2081 |       0.0024 |       0.2516 |       0.2074 |       0.3107 |       0.2508 |       0.3756 |       0.3104 |       0.3621 |       0.3753 |       0.4377 |
dl2.inv_rate                                0.0000 |       0.0000 |       0.0000 |       0.0000 |       0.0000 |       0.0000 |       0.0000 |       0.0000 |       0.0000 |       0.0000 |       0.0000 |       0.0000 |       0.0000 |       0.0000 |       0.0000 |       0.0000 |       0.0000 |       0.0000 |       0.0000 |       0.0000 |       0.0000 |       0.0000 |       0.0000 |       0.0000 |       0.0000 |       0.0000 |       0.0000 |       0.0000 |       0.0000 |       0.0000 |       0.0000 |       0.0000 |       0.0000 |       0.0000 |       0.0000 |       0.0000 |       0.0000 |       0.0000 |       0.0000 |       0.0000 |       0.0000 |       0.0000 |       0.0000 |       0.0000 |
itlb.accesses                               145482 |       145482 |       145482 |       145482 |       274906 |       274906 |       274906 |       274906 |       533748 |       533748 |       533748 |       533748 |      1051434 |      1051434 |      1051434 |      1051434 |      2086797 |      2086797 |      2086797 |      2086797 |      4157524 |      4157524 |      4157524 |      4157524 |      8298976 |      8298976 |      8298976 |      8298976 |     16581880 |     16581880 |     16581880 |     16581880 |     33147691 |     33147691 |     33147691 |     33147691 |     66279310 |     66279310 |     66279310 |     66279310 |    132542548 |    132542548 |    132542548 |    132542548 |
itlb.hits                                   145475 |       145475 |       145475 |       145475 |       274899 |       274899 |       274899 |       274899 |       533741 |       533741 |       533741 |       533741 |      1051427 |      1051427 |      1051427 |      1051427 |      2086790 |      2086790 |      2086790 |      2086790 |      4157517 |      4157517 |      4157517 |      4157517 |      8298969 |      8298969 |      8298969 |      8298969 |     16581873 |     16581873 |     16581873 |     16581873 |     33147684 |     33147684 |     33147684 |     33147684 |     66279303 |     66279303 |     66279303 |     66279303 |    132542541 |    132542541 |    132542541 |    132542541 |
itlb.misses                                      7 |            7 |            7 |            7 |            7 |            7 |            7 |            7 |            7 |            7 |            7 |            7 |            7 |            7 |            7 |            7 |            7 |            7 |            7 |            7 |            7 |            7 |            7 |            7 |            7 |            7 |            7 |            7 |            7 |            7 |            7 |            7 |            7 |            7 |            7 |            7 |            7 |            7 |            7 |            7 |            7 |            7 |            7 |            7 |
itlb.replacements                                0 |            0 |            0 |            0 |            0 |            0 |            0 |            0 |            0 |            0 |            0 |            0 |            0 |            0 |            0 |            0 |            0 |            0 |            0 |            0 |            0 |            0 |            0 |            0 |            0 |            0 |            0 |            0 |            0 |            0 |            0 |            0 |            0 |            0 |            0 |            0 |            0 |            0 |            0 |            0 |            0 |            0 |            0 |            0 |
itlb.writebacks                                  0 |            0 |            0 |            0 |            0 |            0 |            0 |            0 |            0 |            0 |            0 |            0 |            0 |            0 |            0 |            0 |            0 |            0 |            0 |            0 |            0 |            0 |            0 |            0 |            0 |            0 |            0 |            0 |            0 |            0 |            0 |            0 |            0 |            0 |            0 |            0 |            0 |            0 |            0 |            0 |            0 |            0 |            0 |            0 |
itlb.invalidations                               0 |            0 |            0 |            0 |            0 |            0 |            0 |            0 |            0 |            0 |            0 |            0 |            0 |            0 |            0 |            0 |            0 |            0 |            0 |            0 |            0 |            0 |            0 |            0 |            0 |            0 |            0 |            0 |            0 |            0 |            0 |            0 |            0 |            0 |            0 |            0 |            0 |            0 |            0 |            0 |            0 |            0 |            0 |            0 |
itlb.miss_rate                              0.0000 |       0.0000 |       0.0000 |       0.0000 |       0.0000 |       0.0000 |       0.0000 |       0.0000 |       0.0000 |       0.0000 |       0.0000 |       0.0000 |       0.0000 |       0.0000 |       0.0000 |       0.0000 |       0.0000 |       0.0000 |       0.0000 |       0.0000 |       0.0000 |       0.0000 |       0.0000 |       0.0000 |       0.0000 |       0.0000 |       0.0000 |       0.0000 |       0.0000 |       0.0000 |       0.0000 |       0.0000 |       0.0000 |       0.0000 |       0.0000 |       0.0000 |       0.0000 |       0.0000 |       0.0000 |       0.0000 |       0.0000 |       0.0000 |       0.0000 |       0.0000 |
itlb.repl_rate                              0.0000 |       0.0000 |       0.0000 |       0.0000 |       0.0000 |       0.0000 |       0.0000 |       0.0000 |       0.0000 |       0.0000 |       0.0000 |       0.0000 |       0.0000 |       0.0000 |       0.0000 |       0.0000 |       0.0000 |       0.0000 |       0.0000 |       0.0000 |       0.0000 |       0.0000 |       0.0000 |       0.0000 |       0.0000 |       0.0000 |       0.0000 |       0.0000 |       0.0000 |       0.0000 |       0.0000 |       0.0000 |       0.0000 |       0.0000 |       0.0000 |       0.0000 |       0.0000 |       0.0000 |       0.0000 |       0.0000 |       0.0000 |       0.0000 |       0.0000 |       0.0000 |
itlb.wb_rate                                0.0000 |       0.0000 |       0.0000 |       0.0000 |       0.0000 |       0.0000 |       0.0000 |       0.0000 |       0.0000 |       0.0000 |       0.0000 |       0.0000 |       0.0000 |       0.0000 |       0.0000 |       0.0000 |       0.0000 |       0.0000 |       0.0000 |       0.0000 |       0.0000 |       0.0000 |       0.0000 |       0.0000 |       0.0000 |       0.0000 |       0.0000 |       0.0000 |       0.0000 |       0.0000 |       0.0000 |       0.0000 |       0.0000 |       0.0000 |       0.0000 |       0.0000 |       0.0000 |       0.0000 |       0.0000 |       0.0000 |       0.0000 |       0.0000 |       0.0000 |       0.0000 |
itlb.inv_rate                               0.0000 |       0.0000 |       0.0000 |       0.0000 |       0.0000 |       0.0000 |       0.0000 |       0.0000 |       0.0000 |       0.0000 |       0.0000 |       0.0000 |       0.0000 |       0.0000 |       0.0000 |       0.0000 |       0.0000 |       0.0000 |       0.0000 |       0.0000 |       0.0000 |       0.0000 |       0.0000 |       0.0000 |       0.0000 |       0.0000 |       0.0000 |       0.0000 |       0.0000 |       0.0000 |       0.0000 |       0.0000 |       0.0000 |       0.0000 |       0.0000 |       0.0000 |       0.0000 |       0.0000 |       0.0000 |       0.0000 |       0.0000 |       0.0000 |       0.0000 |       0.0000 |
dtlb.accesses                                69821 |        69821 |        69821 |        69821 |       131789 |       131789 |       131789 |       131789 |       255725 |       255725 |       255725 |       255725 |       503603 |       503603 |       503603 |       503603 |       999351 |       999351 |       999351 |       999351 |      1990847 |      1990847 |      1990847 |      1990847 |      3973839 |      3973839 |      3973839 |      3973839 |      7939823 |      7939823 |      7939823 |      7939823 |     15871795 |     15871795 |     15871795 |     15871795 |     31735735 |     31735735 |     31735735 |     31735735 |     63463615 |     63463615 |     63463615 |     63463615 |
dtlb.hits                                    69811 |        69811 |        69811 |        69811 |       131775 |       131775 |       131775 |       131775 |       255703 |       255703 |       255703 |       255703 |       503565 |       503565 |       503565 |       503565 |       999281 |       999281 |       999281 |       999281 |      1990712 |      1990712 |      1990712 |      1990712 |      3973576 |      3973576 |      3973576 |      3973576 |      7939304 |      7939304 |      7939304 |      7939304 |     15870764 |     15870764 |     15870764 |     15870764 |     31733680 |     31733680 |     31733680 |     31733680 |     63459512 |     63459512 |     63459512 |     63459512 |
dtlb.misses                                     10 |           10 |           10 |           10 |           14 |           14 |           14 |           14 |           22 |           22 |           22 |           22 |           38 |           38 |           38 |           38 |           70 |           70 |           70 |           70 |          135 |          135 |          135 |          135 |          263 |          263 |          263 |          263 |          519 |          519 |          519 |          519 |         1031 |         1031 |         1031 |         1031 |         2055 |         2055 |         2055 |         2055 |         4103 |         4103 |         4103 |         4103 |
dtlb.replacements                                0 |            0 |            0 |            0 |            0 |            0 |            0 |            0 |            0 |            0 |            0 |            0 |            0 |            0 |            0 |            0 |            0 |            0 |            0 |            0 |            7 |            7 |            7 |            7 |          135 |          135 |          135 |          135 |          391 |          391 |          391 |          391 |          903 |          903 |          903 |          903 |         1927 |         1927 |         1927 |         1927 |         3975 |         3975 |         3975 |         3975 |
dtlb.writebacks                                  0 |            0 |            0 |            0 |            0 |            0 |            0 |            0 |            0 |            0 |            0 |            0 |            0 |            0 |            0 |            0 |            0 |            0 |            0 |            0 |            6 |            6 |            6 |            6 |          134 |          134 |          134 |          134 |          390 |          390 |          390 |          390 |          902 |          902 |          902 |          902 |         1926 |         1926 |         1926 |         1926 |         3974 |         3974 |         3974 |         3974 |
dtlb.invalidations                               0 |            0 |            0 |            0 |            0 |            0 |            0 |            0 |            0 |            0 |            0 |            0 |            0 |            0 |            0 |            0 |            0 |            0 |            0 |            0 |            0 |            0 |            0 |            0 |            0 |            0 |            0 |            0 |            0 |            0 |            0 |            0 |            0 |            0 |            0 |            0 |            0 |            0 |            0 |            0 |            0 |            0 |            0 |            0 |
dtlb.miss_rate                              0.0001 |       0.0001 |       0.0001 |       0.0001 |       0.0001 |       0.0001 |       0.0001 |       0.0001 |       0.0001 |       0.0001 |       0.0001 |       0.0001 |       0.0001 |       0.0001 |       0.0001 |       0.0001 |       0.0001 |       0.0001 |       0.0001 |       0.0001 |       0.0001 |       0.0001 |       0.0001 |       0.0001 |       0.0001 |       0.0001 |       0.0001 |       0.0001 |       0.0001 |       0.0001 |       0.0001 |       0.0001 |       0.0001 |       0.0001 |       0.0001 |       0.0001 |       0.0001 |       0.0001 |       0.0001 |       0.0001 |       0.0001 |       0.0001 |       0.0001 |       0.0001 |
dtlb.repl_rate                              0.0000 |       0.0000 |       0.0000 |       0.0000 |       0.0000 |       0.0000 |       0.0000 |       0.0000 |       0.0000 |       0.0000 |       0.0000 |       0.0000 |       0.0000 |       0.0000 |       0.0000 |       0.0000 |       0.0000 |       0.0000 |       0.0000 |       0.0000 |       0.0000 |       0.0000 |       0.0000 |       0.0000 |       0.0000 |       0.0000 |       0.0000 |       0.0000 |       0.0000 |       0.0000 |       0.0000 |       0.0000 |       0.0001 |       0.0001 |       0.0001 |       0.0001 |       0.0001 |       0.0001 |       0.0001 |       0.0001 |       0.0001 |       0.0001 |       0.0001 |       0.0001 |
dtlb.wb_rate                                0.0000 |       0.0000 |       0.0000 |       0.0000 |       0.0000 |       0.0000 |       0.0000 |       0.0000 |       0.0000 |       0.0000 |       0.0000 |       0.0000 |       0.0000 |       0.0000 |       0.0000 |       0.0000 |       0.0000 |       0.0000 |       0.0000 |       0.0000 |       0.0000 |       0.0000 |       0.0000 |       0.0000 |       0.0000 |       0.0000 |       0.0000 |       0.0000 |       0.0000 |       0.0000 |       0.0000 |       0.0000 |       0.0001 |       0.0001 |       0.0001 |       0.0001 |       0.0001 |       0.0001 |       0.0001 |       0.0001 |       0.0001 |       0.0001 |       0.0001 |       0.0001 |
dtlb.inv_rate                               0.0000 |       0.0000 |       0.0000 |       0.0000 |       0.0000 |       0.0000 |       0.0000 |       0.0000 |       0.0000 |       0.0000 |       0.0000 |       0.0000 |       0.0000 |       0.0000 |       0.0000 |       0.0000 |       0.0000 |       0.0000 |       0.0000 |       0.0000 |       0.0000 |       0.0000 |       0.0000 |       0.0000 |       0.0000 |       0.0000 |       0.0000 |       0.0000 |       0.0000 |       0.0000 |       0.0000 |       0.0000 |       0.0000 |       0.0000 |       0.0000 |       0.0000 |       0.0000 |       0.0000 |       0.0000 |       0.0000 |       0.0000 |       0.0000 |       0.0000 |       0.0000 |
ld_text_base                            0x00400000 |   0x00400000 |   0x00400000 |   0x00400000 |   0x00400000 |   0x00400000 |   0x00400000 |   0x00400000 |   0x00400000 |   0x00400000 |   0x00400000 |   0x00400000 |   0x00400000 |   0x00400000 |   0x00400000 |   0x00400000 |   0x00400000 |   0x00400000 |   0x00400000 |   0x00400000 |   0x00400000 |   0x00400000 |   0x00400000 |   0x00400000 |   0x00400000 |   0x00400000 |   0x00400000 |   0x00400000 |   0x00400000 |   0x00400000 |   0x00400000 |   0x00400000 |   0x00400000 |   0x00400000 |   0x00400000 |   0x00400000 |   0x00400000 |   0x00400000 |   0x00400000 |   0x00400000 |   0x00400000 |   0x00400000 |   0x00400000 |   0x00400000 |
ld_text_size                                 25504 |        25504 |        25504 |        25504 |        25536 |        25536 |        25536 |        25536 |        25552 |        25552 |        25552 |        25552 |        25584 |        25584 |        25584 |        25584 |        25584 |        25584 |        25584 |        25584 |        25584 |        25584 |        25584 |        25584 |        25584 |        25584 |        25584 |        25584 |        25584 |        25584 |        25584 |        25584 |        25584 |        25584 |        25584 |        25584 |        25584 |        25584 |        25584 |        25584 |        25584 |        25584 |        25584 |        25584 |
ld_data_base                            0x10000000 |   0x10000000 |   0x10000000 |   0x10000000 |   0x10000000 |   0x10000000 |   0x10000000 |   0x10000000 |   0x10000000 |   0x10000000 |   0x10000000 |   0x10000000 |   0x10000000 |   0x10000000 |   0x10000000 |   0x10000000 |   0x10000000 |   0x10000000 |   0x10000000 |   0x10000000 |   0x10000000 |   0x10000000 |   0x10000000 |   0x10000000 |   0x10000000 |   0x10000000 |   0x10000000 |   0x10000000 |   0x10000000 |   0x10000000 |   0x10000000 |   0x10000000 |   0x10000000 |   0x10000000 |   0x10000000 |   0x10000000 |   0x10000000 |   0x10000000 |   0x10000000 |   0x10000000 |   0x10000000 |   0x10000000 |   0x10000000 |   0x10000000 |
ld_data_size                                  4096 |         4096 |         4096 |         4096 |         4096 |         4096 |         4096 |         4096 |         4096 |         4096 |         4096 |         4096 |         4096 |         4096 |         4096 |         4096 |         4096 |         4096 |         4096 |         4096 |         4096 |         4096 |         4096 |         4096 |         4096 |         4096 |         4096 |         4096 |         4096 |         4096 |         4096 |         4096 |         4096 |         4096 |         4096 |         4096 |         4096 |         4096 |         4096 |         4096 |         4096 |         4096 |         4096 |         4096 |
ld_stack_base                           0x7fffc000 |   0x7fffc000 |   0x7fffc000 |   0x7fffc000 |   0x7fffc000 |   0x7fffc000 |   0x7fffc000 |   0x7fffc000 |   0x7fffc000 |   0x7fffc000 |   0x7fffc000 |   0x7fffc000 |   0x7fffc000 |   0x7fffc000 |   0x7fffc000 |   0x7fffc000 |   0x7fffc000 |   0x7fffc000 |   0x7fffc000 |   0x7fffc000 |   0x7fffc000 |   0x7fffc000 |   0x7fffc000 |   0x7fffc000 |   0x7fffc000 |   0x7fffc000 |   0x7fffc000 |   0x7fffc000 |   0x7fffc000 |   0x7fffc000 |   0x7fffc000 |   0x7fffc000 |   0x7fffc000 |   0x7fffc000 |   0x7fffc000 |   0x7fffc000 |   0x7fffc000 |   0x7fffc000 |   0x7fffc000 |   0x7fffc000 |   0x7fffc000 |   0x7fffc000 |   0x7fffc000 |   0x7fffc000 |
ld_stack_size                                16384 |        16384 |        16384 |        16384 |        16384 |        16384 |        16384 |        16384 |        16384 |        16384 |        16384 |        16384 |        16384 |        16384 |        16384 |        16384 |        16384 |        16384 |        16384 |        16384 |        16384 |        16384 |        16384 |        16384 |        16384 |        16384 |        16384 |        16384 |        16384 |        16384 |        16384 |        16384 |        16384 |        16384 |        16384 |        16384 |        16384 |        16384 |        16384 |        16384 |        16384 |        16384 |        16384 |        16384 |
ld_prog_entry                           0x00400140 |   0x00400140 |   0x00400140 |   0x00400140 |   0x00400140 |   0x00400140 |   0x00400140 |   0x00400140 |   0x00400140 |   0x00400140 |   0x00400140 |   0x00400140 |   0x00400140 |   0x00400140 |   0x00400140 |   0x00400140 |   0x00400140 |   0x00400140 |   0x00400140 |   0x00400140 |   0x00400140 |   0x00400140 |   0x00400140 |   0x00400140 |   0x00400140 |   0x00400140 |   0x00400140 |   0x00400140 |   0x00400140 |   0x00400140 |   0x00400140 |   0x00400140 |   0x00400140 |   0x00400140 |   0x00400140 |   0x00400140 |   0x00400140 |   0x00400140 |   0x00400140 |   0x00400140 |   0x00400140 |   0x00400140 |   0x00400140 |   0x00400140 |
ld_environ_base                         0x7fff8000 |   0x7fff8000 |   0x7fff8000 |   0x7fff8000 |   0x7fff8000 |   0x7fff8000 |   0x7fff8000 |   0x7fff8000 |   0x7fff8000 |   0x7fff8000 |   0x7fff8000 |   0x7fff8000 |   0x7fff8000 |   0x7fff8000 |   0x7fff8000 |   0x7fff8000 |   0x7fff8000 |   0x7fff8000 |   0x7fff8000 |   0x7fff8000 |   0x7fff8000 |   0x7fff8000 |   0x7fff8000 |   0x7fff8000 |   0x7fff8000 |   0x7fff8000 |   0x7fff8000 |   0x7fff8000 |   0x7fff8000 |   0x7fff8000 |   0x7fff8000 |   0x7fff8000 |   0x7fff8000 |   0x7fff8000 |   0x7fff8000 |   0x7fff8000 |   0x7fff8000 |   0x7fff8000 |   0x7fff8000 |   0x7fff8000 |   0x7fff8000 |   0x7fff8000 |   0x7fff8000 |   0x7fff8000 |
ld_target_big_endian                             0 |            0 |            0 |            0 |            0 |            0 |            0 |            0 |            0 |            0 |            0 |            0 |            0 |            0 |            0 |            0 |            0 |            0 |            0 |            0 |            0 |            0 |            0 |            0 |            0 |            0 |            0 |            0 |            0 |            0 |            0 |            0 |            0 |            0 |            0 |            0 |            0 |            0 |            0 |            0 |            0 |            0 |            0 |            0 |
mem.page_count                                  17 |           17 |           17 |           17 |           21 |           21 |           21 |           21 |           29 |           29 |           29 |           29 |           45 |           45 |           45 |           45 |           77 |           77 |           77 |           77 |          141 |          141 |          141 |          141 |          269 |          269 |          269 |          269 |          525 |          525 |          525 |          525 |         1037 |         1037 |         1037 |         1037 |         2061 |         2061 |         2061 |         2061 |         4109 |         4109 |         4109 |         4109 |
mem.page_mem                                   68k |          68k |          68k |          68k |          84k |          84k |          84k |          84k |         116k |         116k |         116k |         116k |         180k |         180k |         180k |         180k |         308k |         308k |         308k |         308k |         564k |         564k |         564k |         564k |        1076k |        1076k |        1076k |        1076k |        2100k |        2100k |        2100k |        2100k |        4148k |        4148k |        4148k |        4148k |        8244k |        8244k |        8244k |        8244k |       16436k |       16436k |       16436k |       16436k |
mem.ptab_misses                                 17 |           17 |           17 |           17 |           21 |           21 |           21 |           21 |           29 |           29 |           29 |           29 |           45 |           45 |           45 |           45 |           77 |           77 |           77 |           77 |          141 |          141 |          141 |          141 |          269 |          269 |          269 |          269 |          525 |          525 |          525 |          525 |         1037 |         1037 |         1037 |         1037 |         2061 |         2061 |         2061 |         2061 |         4109 |         4109 |         4109 |         4109 |
mem.ptab_accesses                           879806 |       879806 |       879806 |       879806 |      1521630 |      1521630 |      1521630 |      1521630 |      2804966 |      2804966 |      2804966 |      2804966 |      5371658 |      5371658 |      5371658 |      5371658 |     10504606 |     10504606 |     10504606 |     10504606 |     20770506 |     20770506 |     20770506 |     20770506 |     41302298 |     41302298 |     41302298 |     41302298 |     82365882 |     82365882 |     82365882 |     82365882 |    164493070 |    164493070 |    164493070 |    164493070 |    328747426 |    328747426 |    328747426 |    328747426 |    657256138 |    657256138 |    657256138 |    657256138 |
mem.ptab_miss_rate                          0.0000 |       0.0000 |       0.0000 |       0.0000 |       0.0000 |       0.0000 |       0.0000 |       0.0000 |       0.0000 |       0.0000 |       0.0000 |       0.0000 |       0.0000 |       0.0000 |       0.0000 |       0.0000 |       0.0000 |       0.0000 |       0.0000 |       0.0000 |       0.0000 |       0.0000 |       0.0000 |       0.0000 |       0.0000 |       0.0000 |       0.0000 |       0.0000 |       0.0000 |       0.0000 |       0.0000 |       0.0000 |       0.0000 |       0.0000 |       0.0000 |       0.0000 |       0.0000 |       0.0000 |       0.0000 |       0.0000 |       0.0000 |       0.0000 |       0.0000 |       0.0000 |
-------------------------------------------------------------------------------------------------
sim-bpred                                     4096 |         4096 |         4096 |         4096 |         4096 |         4096 |         4096 |         8192 |         8192 |         8192 |         8192 |         8192 |         8192 |         8192 |        16384 |        16384 |        16384 |        16384 |        16384 |        16384 |        16384 |        32768 |        32768 |        32768 |        32768 |        32768 |        32768 |        32768 |        65536 |        65536 |        65536 |        65536 |        65536 |        65536 |        65536 |       131072 |       131072 |       131072 |       131072 |       131072 |       131072 |       131072 |       262144 |       262144 |       262144 |       262144 |       262144 |       262144 |       262144 |       524288 |       524288 |       524288 |       524288 |       524288 |       524288 |       524288 |      1048576 |      1048576 |      1048576 |      1048576 |      1048576 |      1048576 |      1048576 |      2097152 |      2097152 |      2097152 |      2097152 |      2097152 |      2097152 |      2097152 |      4194304 |      4194304 |      4194304 |      4194304 |      4194304 |      4194304 |      4194304 |
-bpred bimod -bpred:bimod 512
-bpred bimod -bpred:bimod 1024
-bpred bimod -bpred:bimod 2048
-bpred 2lev -bpred:2lev 1 512 10 1
-bpred 2lev -bpred:2lev 1 1024 10 1
-bpred 2lev -bpred:2lev 1 2048 10 1
-bpred 2lev -bpred:2lev 1 4096 10 1
-------------------------------------------------------------------------------------------------
sim_num_insn                                145482 |       145482 |       145482 |       145482 |       145482 |       145482 |       145482 |       274906 |       274906 |       274906 |       274906 |       274906 |       274906 |       274906 |       533748 |       533748 |       533748 |       533748 |       533748 |       533748 |       533748 |      1051434 |      1051434 |      1051434 |      1051434 |      1051434 |      1051434 |      1051434 |      2086797 |      2086797 |      2086797 |      2086797 |      2086797 |      2086797 |      2086797 |      4157524 |      4157524 |      4157524 |      4157524 |      4157524 |      4157524 |      4157524 |      8298976 |      8298976 |      8298976 |      8298976 |      8298976 |      8298976 |      8298976 |     16581880 |     16581880 |     16581880 |     16581880 |     16581880 |     16581880 |     16581880 |     33147691 |     33147691 |     33147691 |     33147691 |     33147691 |     33147691 |     33147691 |     66279310 |     66279310 |     66279310 |     66279310 |     66279310 |     66279310 |     66279310 |    132542548 |    132542548 |    132542548 |    132542548 |    132542548 |    132542548 |    132542548 |
sim_num_refs                                 69751 |        69751 |        69751 |        69751 |        69751 |        69751 |        69751 |       131719 |       131719 |       131719 |       131719 |       131719 |       131719 |       131719 |       255655 |       255655 |       255655 |       255655 |       255655 |       255655 |       255655 |       503533 |       503533 |       503533 |       503533 |       503533 |       503533 |       503533 |       999281 |       999281 |       999281 |       999281 |       999281 |       999281 |       999281 |      1990777 |      1990777 |      1990777 |      1990777 |      1990777 |      1990777 |      1990777 |      3973769 |      3973769 |      3973769 |      3973769 |      3973769 |      3973769 |      3973769 |      7939753 |      7939753 |      7939753 |      7939753 |      7939753 |      7939753 |      7939753 |     15871725 |     15871725 |     15871725 |     15871725 |     15871725 |     15871725 |     15871725 |     31735665 |     31735665 |     31735665 |     31735665 |     31735665 |     31735665 |     31735665 |     63463545 |     63463545 |     63463545 |     63463545 |     63463545 |     63463545 |     63463545 |
sim_elapsed_time                                 1 |            1 |            1 |            1 |            1 |            1 |            1 |            1 |            1 |            1 |            1 |            1 |            1 |            1 |            1 |            1 |            1 |            1 |            1 |            1 |            1 |            1 |            1 |            1 |            1 |            1 |            1 |            1 |            1 |            1 |            1 |            1 |            1 |            1 |            1 |            1 |            1 |            1 |            1 |            1 |            2 |            1 |            2 |            3 |            2 |            2 |            3 |            2 |            2 |            5 |            4 |            5 |            5 |            4 |            5 |            5 |            9 |            9 |            9 |           10 |            9 |            9 |           10 |           18 |           19 |           18 |           19 |           19 |           19 |           18 |           52 |           37 |           38 |           38 |           38 |           37 |           38 |
sim_inst_rate                          145482.0000 |  145482.0000 |  145482.0000 |  145482.0000 |  145482.0000 |  145482.0000 |  145482.0000 |  274906.0000 |  274906.0000 |  274906.0000 |  274906.0000 |  274906.0000 |  274906.0000 |  274906.0000 |  533748.0000 |  533748.0000 |  533748.0000 |  533748.0000 |  533748.0000 |  533748.0000 |  533748.0000 | 1051434.0000 | 1051434.0000 | 1051434.0000 | 1051434.0000 | 1051434.0000 | 1051434.0000 | 1051434.0000 | 2086797.0000 | 2086797.0000 | 2086797.0000 | 2086797.0000 | 2086797.0000 | 2086797.0000 | 2086797.0000 | 4157524.0000 | 4157524.0000 | 4157524.0000 | 4157524.0000 | 4157524.0000 | 2078762.0000 | 4157524.0000 | 4149488.0000 | 2766325.3333 | 4149488.0000 | 4149488.0000 | 2766325.3333 | 4149488.0000 | 4149488.0000 | 3316376.0000 | 4145470.0000 | 3316376.0000 | 3316376.0000 | 4145470.0000 | 3316376.0000 | 3316376.0000 | 3683076.7778 | 3683076.7778 | 3683076.7778 | 3314769.1000 | 3683076.7778 | 3683076.7778 | 3314769.1000 | 3682183.8889 | 3488384.7368 | 3682183.8889 | 3488384.7368 | 3488384.7368 | 3488384.7368 | 3682183.8889 | 2548895.1538 | 3582231.0270 | 3487961.7895 | 3487961.7895 | 3487961.7895 | 3582231.0270 | 3487961.7895 |
sim_num_branches                             31800 |        31800 |        31800 |        31800 |        31800 |        31800 |        31800 |        60984 |        60984 |        60984 |        60984 |        60984 |        60984 |        60984 |       119352 |       119352 |       119352 |       119352 |       119352 |       119352 |       119352 |       236088 |       236088 |       236088 |       236088 |       236088 |       236088 |       236088 |       469560 |       469560 |       469560 |       469560 |       469560 |       469560 |       469560 |       936504 |       936504 |       936504 |       936504 |       936504 |       936504 |       936504 |      1870392 |      1870392 |      1870392 |      1870392 |      1870392 |      1870392 |      1870392 |      3738168 |      3738168 |      3738168 |      3738168 |      3738168 |      3738168 |      3738168 |      7473720 |      7473720 |      7473720 |      7473720 |      7473720 |      7473720 |      7473720 |     14944824 |     14944824 |     14944824 |     14944824 |     14944824 |     14944824 |     14944824 |     29887032 |     29887032 |     29887032 |     29887032 |     29887032 |     29887032 |     29887032 |
sim_IPB                                     4.5749 |       4.5749 |       4.5749 |       4.5749 |       4.5749 |       4.5749 |       4.5749 |       4.5078 |       4.5078 |       4.5078 |       4.5078 |       4.5078 |       4.5078 |       4.5078 |       4.4720 |       4.4720 |       4.4720 |       4.4720 |       4.4720 |       4.4720 |       4.4720 |       4.4536 |       4.4536 |       4.4536 |       4.4536 |       4.4536 |       4.4536 |       4.4536 |       4.4442 |       4.4442 |       4.4442 |       4.4442 |       4.4442 |       4.4442 |       4.4442 |       4.4394 |       4.4394 |       4.4394 |       4.4394 |       4.4394 |       4.4394 |       4.4394 |       4.4370 |       4.4370 |       4.4370 |       4.4370 |       4.4370 |       4.4370 |       4.4370 |       4.4358 |       4.4358 |       4.4358 |       4.4358 |       4.4358 |       4.4358 |       4.4358 |       4.4352 |       4.4352 |       4.4352 |       4.4352 |       4.4352 |       4.4352 |       4.4352 |       4.4349 |       4.4349 |       4.4349 |       4.4349 |       4.4349 |       4.4349 |       4.4349 |       4.4348 |       4.4348 |       4.4348 |       4.4348 |       4.4348 |       4.4348 |       4.4348 |
bpred_bimod.lookups                          31800 |        31800 |        31800 |xxxxxxxxxxxxx |xxxxxxxxxxxxx |xxxxxxxxxxxxx |xxxxxxxxxxxxx |        60984 |        60984 |        60984 |xxxxxxxxxxxxx |xxxxxxxxxxxxx |xxxxxxxxxxxxx |xxxxxxxxxxxxx |       119352 |       119352 |       119352 |xxxxxxxxxxxxx |xxxxxxxxxxxxx |xxxxxxxxxxxxx |xxxxxxxxxxxxx |       236088 |       236088 |       236088 |xxxxxxxxxxxxx |xxxxxxxxxxxxx |xxxxxxxxxxxxx |xxxxxxxxxxxxx |       469560 |       469560 |       469560 |xxxxxxxxxxxxx |xxxxxxxxxxxxx |xxxxxxxxxxxxx |xxxxxxxxxxxxx |       936504 |       936504 |       936504 |xxxxxxxxxxxxx |xxxxxxxxxxxxx |xxxxxxxxxxxxx |xxxxxxxxxxxxx |      1870392 |      1870392 |      1870392 |xxxxxxxxxxxxx |xxxxxxxxxxxxx |xxxxxxxxxxxxx |xxxxxxxxxxxxx |      3738168 |      3738168 |      3738168 |xxxxxxxxxxxxx |xxxxxxxxxxxxx |xxxxxxxxxxxxx |xxxxxxxxxxxxx |      7473720 |      7473720 |      7473720 |xxxxxxxxxxxxx |xxxxxxxxxxxxx |xxxxxxxxxxxxx |xxxxxxxxxxxxx |     14944824 |     14944824 |     14944824 |xxxxxxxxxxxxx |xxxxxxxxxxxxx |xxxxxxxxxxxxx |xxxxxxxxxxxxx |     29887032 |     29887032 |     29887032 |
bpred_bimod.updates                          31800 |        31800 |        31800 |xxxxxxxxxxxxx |xxxxxxxxxxxxx |xxxxxxxxxxxxx |xxxxxxxxxxxxx |        60984 |        60984 |        60984 |xxxxxxxxxxxxx |xxxxxxxxxxxxx |xxxxxxxxxxxxx |xxxxxxxxxxxxx |       119352 |       119352 |       119352 |xxxxxxxxxxxxx |xxxxxxxxxxxxx |xxxxxxxxxxxxx |xxxxxxxxxxxxx |       236088 |       236088 |       236088 |xxxxxxxxxxxxx |xxxxxxxxxxxxx |xxxxxxxxxxxxx |xxxxxxxxxxxxx |       469560 |       469560 |       469560 |xxxxxxxxxxxxx |xxxxxxxxxxxxx |xxxxxxxxxxxxx |xxxxxxxxxxxxx |       936504 |       936504 |       936504 |xxxxxxxxxxxxx |xxxxxxxxxxxxx |xxxxxxxxxxxxx |xxxxxxxxxxxxx |      1870392 |      1870392 |      1870392 |xxxxxxxxxxxxx |xxxxxxxxxxxxx |xxxxxxxxxxxxx |xxxxxxxxxxxxx |      3738168 |      3738168 |      3738168 |xxxxxxxxxxxxx |xxxxxxxxxxxxx |xxxxxxxxxxxxx |xxxxxxxxxxxxx |      7473720 |      7473720 |      7473720 |xxxxxxxxxxxxx |xxxxxxxxxxxxx |xxxxxxxxxxxxx |xxxxxxxxxxxxx |     14944824 |     14944824 |     14944824 |xxxxxxxxxxxxx |xxxxxxxxxxxxx |xxxxxxxxxxxxx |xxxxxxxxxxxxx |     29887032 |     29887032 |     29887032 |
bpred_bimod.addr_hits                        31333 |        31335 |        31336 |xxxxxxxxxxxxx |xxxxxxxxxxxxx |xxxxxxxxxxxxx |xxxxxxxxxxxxx |        60253 |        60255 |        60256 |xxxxxxxxxxxxx |xxxxxxxxxxxxx |xxxxxxxxxxxxx |xxxxxxxxxxxxx |       118093 |       118095 |       118096 |xxxxxxxxxxxxx |xxxxxxxxxxxxx |xxxxxxxxxxxxx |xxxxxxxxxxxxx |       233771 |       233773 |       233774 |xxxxxxxxxxxxx |xxxxxxxxxxxxx |xxxxxxxxxxxxx |xxxxxxxxxxxxx |       465129 |       465131 |       465132 |xxxxxxxxxxxxx |xxxxxxxxxxxxx |xxxxxxxxxxxxx |xxxxxxxxxxxxx |       927845 |       927847 |       927848 |xxxxxxxxxxxxx |xxxxxxxxxxxxx |xxxxxxxxxxxxx |xxxxxxxxxxxxx |      1853277 |      1853279 |      1853280 |xxxxxxxxxxxxx |xxxxxxxxxxxxx |xxxxxxxxxxxxx |xxxxxxxxxxxxx |      3704141 |      3704143 |      3704144 |xxxxxxxxxxxxx |xxxxxxxxxxxxx |xxxxxxxxxxxxx |xxxxxxxxxxxxx |      7405867 |      7405869 |      7405870 |xxxxxxxxxxxxx |xxxxxxxxxxxxx |xxxxxxxxxxxxx |xxxxxxxxxxxxx |     14809321 |     14809323 |     14809324 |xxxxxxxxxxxxx |xxxxxxxxxxxxx |xxxxxxxxxxxxx |xxxxxxxxxxxxx |     29616229 |     29616231 |     29616232 |
bpred_bimod.dir_hits                         31433 |        31436 |        31435 |xxxxxxxxxxxxx |xxxxxxxxxxxxx |xxxxxxxxxxxxx |xxxxxxxxxxxxx |        60353 |        60356 |        60355 |xxxxxxxxxxxxx |xxxxxxxxxxxxx |xxxxxxxxxxxxx |xxxxxxxxxxxxx |       118194 |       118197 |       118196 |xxxxxxxxxxxxx |xxxxxxxxxxxxx |xxxxxxxxxxxxx |xxxxxxxxxxxxx |       233872 |       233875 |       233874 |xxxxxxxxxxxxx |xxxxxxxxxxxxx |xxxxxxxxxxxxx |xxxxxxxxxxxxx |       465230 |       465233 |       465232 |xxxxxxxxxxxxx |xxxxxxxxxxxxx |xxxxxxxxxxxxx |xxxxxxxxxxxxx |       927945 |       927948 |       927947 |xxxxxxxxxxxxx |xxxxxxxxxxxxx |xxxxxxxxxxxxx |xxxxxxxxxxxxx |      1853377 |      1853380 |      1853379 |xxxxxxxxxxxxx |xxxxxxxxxxxxx |xxxxxxxxxxxxx |xxxxxxxxxxxxx |      3704241 |      3704244 |      3704243 |xxxxxxxxxxxxx |xxxxxxxxxxxxx |xxxxxxxxxxxxx |xxxxxxxxxxxxx |      7405967 |      7405970 |      7405969 |xxxxxxxxxxxxx |xxxxxxxxxxxxx |xxxxxxxxxxxxx |xxxxxxxxxxxxx |     14809421 |     14809424 |     14809423 |xxxxxxxxxxxxx |xxxxxxxxxxxxx |xxxxxxxxxxxxx |xxxxxxxxxxxxx |     29616329 |     29616332 |     29616331 |
bpred_bimod.misses                             367 |          364 |          365 |xxxxxxxxxxxxx |xxxxxxxxxxxxx |xxxxxxxxxxxxx |xxxxxxxxxxxxx |          631 |          628 |          629 |xxxxxxxxxxxxx |xxxxxxxxxxxxx |xxxxxxxxxxxxx |xxxxxxxxxxxxx |         1158 |         1155 |         1156 |xxxxxxxxxxxxx |xxxxxxxxxxxxx |xxxxxxxxxxxxx |xxxxxxxxxxxxx |         2216 |         2213 |         2214 |xxxxxxxxxxxxx |xxxxxxxxxxxxx |xxxxxxxxxxxxx |xxxxxxxxxxxxx |         4330 |         4327 |         4328 |xxxxxxxxxxxxx |xxxxxxxxxxxxx |xxxxxxxxxxxxx |xxxxxxxxxxxxx |         8559 |         8556 |         8557 |xxxxxxxxxxxxx |xxxxxxxxxxxxx |xxxxxxxxxxxxx |xxxxxxxxxxxxx |        17015 |        17012 |        17013 |xxxxxxxxxxxxx |xxxxxxxxxxxxx |xxxxxxxxxxxxx |xxxxxxxxxxxxx |        33927 |        33924 |        33925 |xxxxxxxxxxxxx |xxxxxxxxxxxxx |xxxxxxxxxxxxx |xxxxxxxxxxxxx |        67753 |        67750 |        67751 |xxxxxxxxxxxxx |xxxxxxxxxxxxx |xxxxxxxxxxxxx |xxxxxxxxxxxxx |       135403 |       135400 |       135401 |xxxxxxxxxxxxx |xxxxxxxxxxxxx |xxxxxxxxxxxxx |xxxxxxxxxxxxx |       270703 |       270700 |       270701 |
bpred_bimod.jr_hits                           8553 |         8553 |         8553 |xxxxxxxxxxxxx |xxxxxxxxxxxxx |xxxxxxxxxxxxx |xxxxxxxxxxxxx |        16745 |        16745 |        16745 |xxxxxxxxxxxxx |xxxxxxxxxxxxx |xxxxxxxxxxxxx |xxxxxxxxxxxxx |        33129 |        33129 |        33129 |xxxxxxxxxxxxx |xxxxxxxxxxxxx |xxxxxxxxxxxxx |xxxxxxxxxxxxx |        65897 |        65897 |        65897 |xxxxxxxxxxxxx |xxxxxxxxxxxxx |xxxxxxxxxxxxx |xxxxxxxxxxxxx |       131433 |       131433 |       131433 |xxxxxxxxxxxxx |xxxxxxxxxxxxx |xxxxxxxxxxxxx |xxxxxxxxxxxxx |       262505 |       262505 |       262505 |xxxxxxxxxxxxx |xxxxxxxxxxxxx |xxxxxxxxxxxxx |xxxxxxxxxxxxx |       524649 |       524649 |       524649 |xxxxxxxxxxxxx |xxxxxxxxxxxxx |xxxxxxxxxxxxx |xxxxxxxxxxxxx |      1048937 |      1048937 |      1048937 |xxxxxxxxxxxxx |xxxxxxxxxxxxx |xxxxxxxxxxxxx |xxxxxxxxxxxxx |      2097513 |      2097513 |      2097513 |xxxxxxxxxxxxx |xxxxxxxxxxxxx |xxxxxxxxxxxxx |xxxxxxxxxxxxx |      4194665 |      4194665 |      4194665 |xxxxxxxxxxxxx |xxxxxxxxxxxxx |xxxxxxxxxxxxx |xxxxxxxxxxxxx |      8388969 |      8388969 |      8388969 |
bpred_bimod.jr_seen                           8554 |         8554 |         8554 |xxxxxxxxxxxxx |xxxxxxxxxxxxx |xxxxxxxxxxxxx |xxxxxxxxxxxxx |        16746 |        16746 |        16746 |xxxxxxxxxxxxx |xxxxxxxxxxxxx |xxxxxxxxxxxxx |xxxxxxxxxxxxx |        33130 |        33130 |        33130 |xxxxxxxxxxxxx |xxxxxxxxxxxxx |xxxxxxxxxxxxx |xxxxxxxxxxxxx |        65898 |        65898 |        65898 |xxxxxxxxxxxxx |xxxxxxxxxxxxx |xxxxxxxxxxxxx |xxxxxxxxxxxxx |       131434 |       131434 |       131434 |xxxxxxxxxxxxx |xxxxxxxxxxxxx |xxxxxxxxxxxxx |xxxxxxxxxxxxx |       262506 |       262506 |       262506 |xxxxxxxxxxxxx |xxxxxxxxxxxxx |xxxxxxxxxxxxx |xxxxxxxxxxxxx |       524650 |       524650 |       524650 |xxxxxxxxxxxxx |xxxxxxxxxxxxx |xxxxxxxxxxxxx |xxxxxxxxxxxxx |      1048938 |      1048938 |      1048938 |xxxxxxxxxxxxx |xxxxxxxxxxxxx |xxxxxxxxxxxxx |xxxxxxxxxxxxx |      2097514 |      2097514 |      2097514 |xxxxxxxxxxxxx |xxxxxxxxxxxxx |xxxxxxxxxxxxx |xxxxxxxxxxxxx |      4194666 |      4194666 |      4194666 |xxxxxxxxxxxxx |xxxxxxxxxxxxx |xxxxxxxxxxxxx |xxxxxxxxxxxxx |      8388970 |      8388970 |      8388970 |
bpred_bimod.jr_non_ras_hits.PP                   0 |            0 |            0 |xxxxxxxxxxxxx |xxxxxxxxxxxxx |xxxxxxxxxxxxx |xxxxxxxxxxxxx |            0 |            0 |            0 |xxxxxxxxxxxxx |xxxxxxxxxxxxx |xxxxxxxxxxxxx |xxxxxxxxxxxxx |            0 |            0 |            0 |xxxxxxxxxxxxx |xxxxxxxxxxxxx |xxxxxxxxxxxxx |xxxxxxxxxxxxx |            0 |            0 |            0 |xxxxxxxxxxxxx |xxxxxxxxxxxxx |xxxxxxxxxxxxx |xxxxxxxxxxxxx |            0 |            0 |            0 |xxxxxxxxxxxxx |xxxxxxxxxxxxx |xxxxxxxxxxxxx |xxxxxxxxxxxxx |            0 |            0 |            0 |xxxxxxxxxxxxx |xxxxxxxxxxxxx |xxxxxxxxxxxxx |xxxxxxxxxxxxx |            0 |            0 |            0 |xxxxxxxxxxxxx |xxxxxxxxxxxxx |xxxxxxxxxxxxx |xxxxxxxxxxxxx |            0 |            0 |            0 |xxxxxxxxxxxxx |xxxxxxxxxxxxx |xxxxxxxxxxxxx |xxxxxxxxxxxxx |            0 |            0 |            0 |xxxxxxxxxxxxx |xxxxxxxxxxxxx |xxxxxxxxxxxxx |xxxxxxxxxxxxx |            0 |            0 |            0 |xxxxxxxxxxxxx |xxxxxxxxxxxxx |xxxxxxxxxxxxx |xxxxxxxxxxxxx |            0 |            0 |            0 |
bpred_bimod.jr_non_ras_seen.PP                   0 |            0 |            0 |xxxxxxxxxxxxx |xxxxxxxxxxxxx |xxxxxxxxxxxxx |xxxxxxxxxxxxx |            0 |            0 |            0 |xxxxxxxxxxxxx |xxxxxxxxxxxxx |xxxxxxxxxxxxx |xxxxxxxxxxxxx |            0 |            0 |            0 |xxxxxxxxxxxxx |xxxxxxxxxxxxx |xxxxxxxxxxxxx |xxxxxxxxxxxxx |            0 |            0 |            0 |xxxxxxxxxxxxx |xxxxxxxxxxxxx |xxxxxxxxxxxxx |xxxxxxxxxxxxx |            0 |            0 |            0 |xxxxxxxxxxxxx |xxxxxxxxxxxxx |xxxxxxxxxxxxx |xxxxxxxxxxxxx |            0 |            0 |            0 |xxxxxxxxxxxxx |xxxxxxxxxxxxx |xxxxxxxxxxxxx |xxxxxxxxxxxxx |            0 |            0 |            0 |xxxxxxxxxxxxx |xxxxxxxxxxxxx |xxxxxxxxxxxxx |xxxxxxxxxxxxx |            0 |            0 |            0 |xxxxxxxxxxxxx |xxxxxxxxxxxxx |xxxxxxxxxxxxx |xxxxxxxxxxxxx |            0 |            0 |            0 |xxxxxxxxxxxxx |xxxxxxxxxxxxx |xxxxxxxxxxxxx |xxxxxxxxxxxxx |            0 |            0 |            0 |xxxxxxxxxxxxx |xxxxxxxxxxxxx |xxxxxxxxxxxxx |xxxxxxxxxxxxx |            0 |            0 |            0 |
bpred_bimod.bpred_addr_rate                 0.9853 |       0.9854 |       0.9854 |xxxxxxxxxxxxx |xxxxxxxxxxxxx |xxxxxxxxxxxxx |xxxxxxxxxxxxx |       0.9880 |       0.9880 |       0.9881 |xxxxxxxxxxxxx |xxxxxxxxxxxxx |xxxxxxxxxxxxx |xxxxxxxxxxxxx |       0.9895 |       0.9895 |       0.9895 |xxxxxxxxxxxxx |xxxxxxxxxxxxx |xxxxxxxxxxxxx |xxxxxxxxxxxxx |       0.9902 |       0.9902 |       0.9902 |xxxxxxxxxxxxx |xxxxxxxxxxxxx |xxxxxxxxxxxxx |xxxxxxxxxxxxx |       0.9906 |       0.9906 |       0.9906 |xxxxxxxxxxxxx |xxxxxxxxxxxxx |xxxxxxxxxxxxx |xxxxxxxxxxxxx |       0.9908 |       0.9908 |       0.9908 |xxxxxxxxxxxxx |xxxxxxxxxxxxx |xxxxxxxxxxxxx |xxxxxxxxxxxxx |       0.9908 |       0.9909 |       0.9909 |xxxxxxxxxxxxx |xxxxxxxxxxxxx |xxxxxxxxxxxxx |xxxxxxxxxxxxx |       0.9909 |       0.9909 |       0.9909 |xxxxxxxxxxxxx |xxxxxxxxxxxxx |xxxxxxxxxxxxx |xxxxxxxxxxxxx |       0.9909 |       0.9909 |       0.9909 |xxxxxxxxxxxxx |xxxxxxxxxxxxx |xxxxxxxxxxxxx |xxxxxxxxxxxxx |       0.9909 |       0.9909 |       0.9909 |xxxxxxxxxxxxx |xxxxxxxxxxxxx |xxxxxxxxxxxxx |xxxxxxxxxxxxx |       0.9909 |       0.9909 |       0.9909 |
bpred_bimod.bpred_dir_rate                  0.9885 |       0.9886 |       0.9885 |xxxxxxxxxxxxx |xxxxxxxxxxxxx |xxxxxxxxxxxxx |xxxxxxxxxxxxx |       0.9897 |       0.9897 |       0.9897 |xxxxxxxxxxxxx |xxxxxxxxxxxxx |xxxxxxxxxxxxx |xxxxxxxxxxxxx |       0.9903 |       0.9903 |       0.9903 |xxxxxxxxxxxxx |xxxxxxxxxxxxx |xxxxxxxxxxxxx |xxxxxxxxxxxxx |       0.9906 |       0.9906 |       0.9906 |xxxxxxxxxxxxx |xxxxxxxxxxxxx |xxxxxxxxxxxxx |xxxxxxxxxxxxx |       0.9908 |       0.9908 |       0.9908 |xxxxxxxxxxxxx |xxxxxxxxxxxxx |xxxxxxxxxxxxx |xxxxxxxxxxxxx |       0.9909 |       0.9909 |       0.9909 |xxxxxxxxxxxxx |xxxxxxxxxxxxx |xxxxxxxxxxxxx |xxxxxxxxxxxxx |       0.9909 |       0.9909 |       0.9909 |xxxxxxxxxxxxx |xxxxxxxxxxxxx |xxxxxxxxxxxxx |xxxxxxxxxxxxx |       0.9909 |       0.9909 |       0.9909 |xxxxxxxxxxxxx |xxxxxxxxxxxxx |xxxxxxxxxxxxx |xxxxxxxxxxxxx |       0.9909 |       0.9909 |       0.9909 |xxxxxxxxxxxxx |xxxxxxxxxxxxx |xxxxxxxxxxxxx |xxxxxxxxxxxxx |       0.9909 |       0.9909 |       0.9909 |xxxxxxxxxxxxx |xxxxxxxxxxxxx |xxxxxxxxxxxxx |xxxxxxxxxxxxx |       0.9909 |       0.9909 |       0.9909 |
bpred_bimod.bpred_jr_rate                   0.9999 |       0.9999 |       0.9999 |xxxxxxxxxxxxx |xxxxxxxxxxxxx |xxxxxxxxxxxxx |xxxxxxxxxxxxx |       0.9999 |       0.9999 |       0.9999 |xxxxxxxxxxxxx |xxxxxxxxxxxxx |xxxxxxxxxxxxx |xxxxxxxxxxxxx |       1.0000 |       1.0000 |       1.0000 |xxxxxxxxxxxxx |xxxxxxxxxxxxx |xxxxxxxxxxxxx |xxxxxxxxxxxxx |       1.0000 |       1.0000 |       1.0000 |xxxxxxxxxxxxx |xxxxxxxxxxxxx |xxxxxxxxxxxxx |xxxxxxxxxxxxx |       1.0000 |       1.0000 |       1.0000 |xxxxxxxxxxxxx |xxxxxxxxxxxxx |xxxxxxxxxxxxx |xxxxxxxxxxxxx |       1.0000 |       1.0000 |       1.0000 |xxxxxxxxxxxxx |xxxxxxxxxxxxx |xxxxxxxxxxxxx |xxxxxxxxxxxxx |       1.0000 |       1.0000 |       1.0000 |xxxxxxxxxxxxx |xxxxxxxxxxxxx |xxxxxxxxxxxxx |xxxxxxxxxxxxx |       1.0000 |       1.0000 |       1.0000 |xxxxxxxxxxxxx |xxxxxxxxxxxxx |xxxxxxxxxxxxx |xxxxxxxxxxxxx |       1.0000 |       1.0000 |       1.0000 |xxxxxxxxxxxxx |xxxxxxxxxxxxx |xxxxxxxxxxxxx |xxxxxxxxxxxxx |       1.0000 |       1.0000 |       1.0000 |xxxxxxxxxxxxx |xxxxxxxxxxxxx |xxxxxxxxxxxxx |xxxxxxxxxxxxx |       1.0000 |       1.0000 |       1.0000 |
bpred_bimod.bpred_jr_non_ras_rate.PP       <error: |      <error: |      <error: |xxxxxxxxxxxxx |xxxxxxxxxxxxx |xxxxxxxxxxxxx |xxxxxxxxxxxxx |      <error: |      <error: |      <error: |xxxxxxxxxxxxx |xxxxxxxxxxxxx |xxxxxxxxxxxxx |xxxxxxxxxxxxx |      <error: |      <error: |      <error: |xxxxxxxxxxxxx |xxxxxxxxxxxxx |xxxxxxxxxxxxx |xxxxxxxxxxxxx |      <error: |      <error: |      <error: |xxxxxxxxxxxxx |xxxxxxxxxxxxx |xxxxxxxxxxxxx |xxxxxxxxxxxxx |      <error: |      <error: |      <error: |xxxxxxxxxxxxx |xxxxxxxxxxxxx |xxxxxxxxxxxxx |xxxxxxxxxxxxx |      <error: |      <error: |      <error: |xxxxxxxxxxxxx |xxxxxxxxxxxxx |xxxxxxxxxxxxx |xxxxxxxxxxxxx |      <error: |      <error: |      <error: |xxxxxxxxxxxxx |xxxxxxxxxxxxx |xxxxxxxxxxxxx |xxxxxxxxxxxxx |      <error: |      <error: |      <error: |xxxxxxxxxxxxx |xxxxxxxxxxxxx |xxxxxxxxxxxxx |xxxxxxxxxxxxx |      <error: |      <error: |      <error: |xxxxxxxxxxxxx |xxxxxxxxxxxxx |xxxxxxxxxxxxx |xxxxxxxxxxxxx |      <error: |      <error: |      <error: |xxxxxxxxxxxxx |xxxxxxxxxxxxx |xxxxxxxxxxxxx |xxxxxxxxxxxxx |      <error: |      <error: |      <error: |
bpred_bimod.retstack_pushes                   8556 |         8556 |         8556 |xxxxxxxxxxxxx |xxxxxxxxxxxxx |xxxxxxxxxxxxx |xxxxxxxxxxxxx |        16748 |        16748 |        16748 |xxxxxxxxxxxxx |xxxxxxxxxxxxx |xxxxxxxxxxxxx |xxxxxxxxxxxxx |        33132 |        33132 |        33132 |xxxxxxxxxxxxx |xxxxxxxxxxxxx |xxxxxxxxxxxxx |xxxxxxxxxxxxx |        65900 |        65900 |        65900 |xxxxxxxxxxxxx |xxxxxxxxxxxxx |xxxxxxxxxxxxx |xxxxxxxxxxxxx |       131436 |       131436 |       131436 |xxxxxxxxxxxxx |xxxxxxxxxxxxx |xxxxxxxxxxxxx |xxxxxxxxxxxxx |       262508 |       262508 |       262508 |xxxxxxxxxxxxx |xxxxxxxxxxxxx |xxxxxxxxxxxxx |xxxxxxxxxxxxx |       524652 |       524652 |       524652 |xxxxxxxxxxxxx |xxxxxxxxxxxxx |xxxxxxxxxxxxx |xxxxxxxxxxxxx |      1048940 |      1048940 |      1048940 |xxxxxxxxxxxxx |xxxxxxxxxxxxx |xxxxxxxxxxxxx |xxxxxxxxxxxxx |      2097516 |      2097516 |      2097516 |xxxxxxxxxxxxx |xxxxxxxxxxxxx |xxxxxxxxxxxxx |xxxxxxxxxxxxx |      4194668 |      4194668 |      4194668 |xxxxxxxxxxxxx |xxxxxxxxxxxxx |xxxxxxxxxxxxx |xxxxxxxxxxxxx |      8388972 |      8388972 |      8388972 |
bpred_bimod.retstack_pops                     8554 |         8554 |         8554 |xxxxxxxxxxxxx |xxxxxxxxxxxxx |xxxxxxxxxxxxx |xxxxxxxxxxxxx |        16746 |        16746 |        16746 |xxxxxxxxxxxxx |xxxxxxxxxxxxx |xxxxxxxxxxxxx |xxxxxxxxxxxxx |        33130 |        33130 |        33130 |xxxxxxxxxxxxx |xxxxxxxxxxxxx |xxxxxxxxxxxxx |xxxxxxxxxxxxx |        65898 |        65898 |        65898 |xxxxxxxxxxxxx |xxxxxxxxxxxxx |xxxxxxxxxxxxx |xxxxxxxxxxxxx |       131434 |       131434 |       131434 |xxxxxxxxxxxxx |xxxxxxxxxxxxx |xxxxxxxxxxxxx |xxxxxxxxxxxxx |       262506 |       262506 |       262506 |xxxxxxxxxxxxx |xxxxxxxxxxxxx |xxxxxxxxxxxxx |xxxxxxxxxxxxx |       524650 |       524650 |       524650 |xxxxxxxxxxxxx |xxxxxxxxxxxxx |xxxxxxxxxxxxx |xxxxxxxxxxxxx |      1048938 |      1048938 |      1048938 |xxxxxxxxxxxxx |xxxxxxxxxxxxx |xxxxxxxxxxxxx |xxxxxxxxxxxxx |      2097514 |      2097514 |      2097514 |xxxxxxxxxxxxx |xxxxxxxxxxxxx |xxxxxxxxxxxxx |xxxxxxxxxxxxx |      4194666 |      4194666 |      4194666 |xxxxxxxxxxxxx |xxxxxxxxxxxxx |xxxxxxxxxxxxx |xxxxxxxxxxxxx |      8388970 |      8388970 |      8388970 |
bpred_bimod.used_ras.PP                       8554 |         8554 |         8554 |xxxxxxxxxxxxx |xxxxxxxxxxxxx |xxxxxxxxxxxxx |xxxxxxxxxxxxx |        16746 |        16746 |        16746 |xxxxxxxxxxxxx |xxxxxxxxxxxxx |xxxxxxxxxxxxx |xxxxxxxxxxxxx |        33130 |        33130 |        33130 |xxxxxxxxxxxxx |xxxxxxxxxxxxx |xxxxxxxxxxxxx |xxxxxxxxxxxxx |        65898 |        65898 |        65898 |xxxxxxxxxxxxx |xxxxxxxxxxxxx |xxxxxxxxxxxxx |xxxxxxxxxxxxx |       131434 |       131434 |       131434 |xxxxxxxxxxxxx |xxxxxxxxxxxxx |xxxxxxxxxxxxx |xxxxxxxxxxxxx |       262506 |       262506 |       262506 |xxxxxxxxxxxxx |xxxxxxxxxxxxx |xxxxxxxxxxxxx |xxxxxxxxxxxxx |       524650 |       524650 |       524650 |xxxxxxxxxxxxx |xxxxxxxxxxxxx |xxxxxxxxxxxxx |xxxxxxxxxxxxx |      1048938 |      1048938 |      1048938 |xxxxxxxxxxxxx |xxxxxxxxxxxxx |xxxxxxxxxxxxx |xxxxxxxxxxxxx |      2097514 |      2097514 |      2097514 |xxxxxxxxxxxxx |xxxxxxxxxxxxx |xxxxxxxxxxxxx |xxxxxxxxxxxxx |      4194666 |      4194666 |      4194666 |xxxxxxxxxxxxx |xxxxxxxxxxxxx |xxxxxxxxxxxxx |xxxxxxxxxxxxx |      8388970 |      8388970 |      8388970 |
bpred_bimod.ras_hits.PP                       8553 |         8553 |         8553 |xxxxxxxxxxxxx |xxxxxxxxxxxxx |xxxxxxxxxxxxx |xxxxxxxxxxxxx |        16745 |        16745 |        16745 |xxxxxxxxxxxxx |xxxxxxxxxxxxx |xxxxxxxxxxxxx |xxxxxxxxxxxxx |        33129 |        33129 |        33129 |xxxxxxxxxxxxx |xxxxxxxxxxxxx |xxxxxxxxxxxxx |xxxxxxxxxxxxx |        65897 |        65897 |        65897 |xxxxxxxxxxxxx |xxxxxxxxxxxxx |xxxxxxxxxxxxx |xxxxxxxxxxxxx |       131433 |       131433 |       131433 |xxxxxxxxxxxxx |xxxxxxxxxxxxx |xxxxxxxxxxxxx |xxxxxxxxxxxxx |       262505 |       262505 |       262505 |xxxxxxxxxxxxx |xxxxxxxxxxxxx |xxxxxxxxxxxxx |xxxxxxxxxxxxx |       524649 |       524649 |       524649 |xxxxxxxxxxxxx |xxxxxxxxxxxxx |xxxxxxxxxxxxx |xxxxxxxxxxxxx |      1048937 |      1048937 |      1048937 |xxxxxxxxxxxxx |xxxxxxxxxxxxx |xxxxxxxxxxxxx |xxxxxxxxxxxxx |      2097513 |      2097513 |      2097513 |xxxxxxxxxxxxx |xxxxxxxxxxxxx |xxxxxxxxxxxxx |xxxxxxxxxxxxx |      4194665 |      4194665 |      4194665 |xxxxxxxxxxxxx |xxxxxxxxxxxxx |xxxxxxxxxxxxx |xxxxxxxxxxxxx |      8388969 |      8388969 |      8388969 |
bpred_bimod.ras_rate.PP                     0.9999 |       0.9999 |       0.9999 |xxxxxxxxxxxxx |xxxxxxxxxxxxx |xxxxxxxxxxxxx |xxxxxxxxxxxxx |       0.9999 |       0.9999 |       0.9999 |xxxxxxxxxxxxx |xxxxxxxxxxxxx |xxxxxxxxxxxxx |xxxxxxxxxxxxx |       1.0000 |       1.0000 |       1.0000 |xxxxxxxxxxxxx |xxxxxxxxxxxxx |xxxxxxxxxxxxx |xxxxxxxxxxxxx |       1.0000 |       1.0000 |       1.0000 |xxxxxxxxxxxxx |xxxxxxxxxxxxx |xxxxxxxxxxxxx |xxxxxxxxxxxxx |       1.0000 |       1.0000 |       1.0000 |xxxxxxxxxxxxx |xxxxxxxxxxxxx |xxxxxxxxxxxxx |xxxxxxxxxxxxx |       1.0000 |       1.0000 |       1.0000 |xxxxxxxxxxxxx |xxxxxxxxxxxxx |xxxxxxxxxxxxx |xxxxxxxxxxxxx |       1.0000 |       1.0000 |       1.0000 |xxxxxxxxxxxxx |xxxxxxxxxxxxx |xxxxxxxxxxxxx |xxxxxxxxxxxxx |       1.0000 |       1.0000 |       1.0000 |xxxxxxxxxxxxx |xxxxxxxxxxxxx |xxxxxxxxxxxxx |xxxxxxxxxxxxx |       1.0000 |       1.0000 |       1.0000 |xxxxxxxxxxxxx |xxxxxxxxxxxxx |xxxxxxxxxxxxx |xxxxxxxxxxxxx |       1.0000 |       1.0000 |       1.0000 |xxxxxxxxxxxxx |xxxxxxxxxxxxx |xxxxxxxxxxxxx |xxxxxxxxxxxxx |       1.0000 |       1.0000 |       1.0000 |
bpred_2lev.lookups                   xxxxxxxxxxxxx |xxxxxxxxxxxxx |xxxxxxxxxxxxx |        31800 |        31800 |        31800 |        31800 |xxxxxxxxxxxxx |xxxxxxxxxxxxx |xxxxxxxxxxxxx |        60984 |        60984 |        60984 |        60984 |xxxxxxxxxxxxx |xxxxxxxxxxxxx |xxxxxxxxxxxxx |       119352 |       119352 |       119352 |       119352 |xxxxxxxxxxxxx |xxxxxxxxxxxxx |xxxxxxxxxxxxx |       236088 |       236088 |       236088 |       236088 |xxxxxxxxxxxxx |xxxxxxxxxxxxx |xxxxxxxxxxxxx |       469560 |       469560 |       469560 |       469560 |xxxxxxxxxxxxx |xxxxxxxxxxxxx |xxxxxxxxxxxxx |       936504 |       936504 |       936504 |       936504 |xxxxxxxxxxxxx |xxxxxxxxxxxxx |xxxxxxxxxxxxx |      1870392 |      1870392 |      1870392 |      1870392 |xxxxxxxxxxxxx |xxxxxxxxxxxxx |xxxxxxxxxxxxx |      3738168 |      3738168 |      3738168 |      3738168 |xxxxxxxxxxxxx |xxxxxxxxxxxxx |xxxxxxxxxxxxx |      7473720 |      7473720 |      7473720 |      7473720 |xxxxxxxxxxxxx |xxxxxxxxxxxxx |xxxxxxxxxxxxx |     14944824 |     14944824 |     14944824 |     14944824 |xxxxxxxxxxxxx |xxxxxxxxxxxxx |xxxxxxxxxxxxx |     29887032 |     29887032 |     29887032 |     29887032 |
[...]
bpred_2lev.bpred_jr_non_ras_rate.PP  xxxxxxxxxxxxx |xxxxxxxxxxxxx |xxxxxxxxxxxxx |      <error: |      <error: |      <error: |      <error: |xxxxxxxxxxxxx |xxxxxxxxxxxxx |xxxxxxxxxxxxx |      <error: |      <error: |      <error: |      <error: |xxxxxxxxxxxxx |xxxxxxxxxxxxx |xxxxxxxxxxxxx |      <error: |      <error: |      <error: |      <error: |xxxxxxxxxxxxx |xxxxxxxxxxxxx |xxxxxxxxxxxxx |      <error: |      <error: |      <error: |      <error: |xxxxxxxxxxxxx |xxxxxxxxxxxxx |xxxxxxxxxxxxx |      <error: |      <error: |      <error: |      <error: |xxxxxxxxxxxxx |xxxxxxxxxxxxx |xxxxxxxxxxxxx |      <error: |      <error: |      <error: |      <error: |xxxxxxxxxxxxx |xxxxxxxxxxxxx |xxxxxxxxxxxxx |      <error: |      <error: |      <error: |      <error: |xxxxxxxxxxxxx |xxxxxxxxxxxxx |xxxxxxxxxxxxx |      <error: |      <error: |      <error: |      <error: |xxxxxxxxxxxxx |xxxxxxxxxxxxx |xxxxxxxxxxxxx |      <error: |      <error: |      <error: |      <error: |xxxxxxxxxxxxx |xxxxxxxxxxxxx |xxxxxxxxxxxxx |      <error: |      <error: |      <error: |      <error: |xxxxxxxxxxxxx |xxxxxxxxxxxxx |xxxxxxxxxxxxx |      <error: |      <error: |      <error: |      <error: |
bpred_2lev.retstack_pushes           xxxxxxxxxxxxx |xxxxxxxxxxxxx |xxxxxxxxxxxxx |         8556 |         8556 |         8556 |         8556 |xxxxxxxxxxxxx |xxxxxxxxxxxxx |xxxxxxxxxxxxx |        16748 |        16748 |        16748 |        16748 |xxxxxxxxxxxxx |xxxxxxxxxxxxx |xxxxxxxxxxxxx |        33132 |        33132 |        33132 |        33132 |xxxxxxxxxxxxx |xxxxxxxxxxxxx |xxxxxxxxxxxxx |        65900 |        65900 |        65900 |        65900 |xxxxxxxxxxxxx |xxxxxxxxxxxxx |xxxxxxxxxxxxx |       131436 |       131436 |       131436 |       131436 |xxxxxxxxxxxxx |xxxxxxxxxxxxx |xxxxxxxxxxxxx |       262508 |       262508 |       262508 |       262508 |xxxxxxxxxxxxx |xxxxxxxxxxxxx |xxxxxxxxxxxxx |       524652 |       524652 |       524652 |       524652 |xxxxxxxxxxxxx |xxxxxxxxxxxxx |xxxxxxxxxxxxx |      1048940 |      1048940 |      1048940 |      1048940 |xxxxxxxxxxxxx |xxxxxxxxxxxxx |xxxxxxxxxxxxx |      2097516 |      2097516 |      2097516 |      2097516 |xxxxxxxxxxxxx |xxxxxxxxxxxxx |xxxxxxxxxxxxx |      4194668 |      4194668 |      4194668 |      4194668 |xxxxxxxxxxxxx |xxxxxxxxxxxxx |xxxxxxxxxxxxx |      8388972 |      8388972 |      8388972 |      8388972 |
bpred_2lev.retstack_pops             xxxxxxxxxxxxx |xxxxxxxxxxxxx |xxxxxxxxxxxxx |         8554 |         8554 |         8554 |         8554 |xxxxxxxxxxxxx |xxxxxxxxxxxxx |xxxxxxxxxxxxx |        16746 |        16746 |        16746 |        16746 |xxxxxxxxxxxxx |xxxxxxxxxxxxx |xxxxxxxxxxxxx |        33130 |        33130 |        33130 |        33130 |xxxxxxxxxxxxx |xxxxxxxxxxxxx |xxxxxxxxxxxxx |        65898 |        65898 |        65898 |        65898 |xxxxxxxxxxxxx |xxxxxxxxxxxxx |xxxxxxxxxxxxx |       131434 |       131434 |       131434 |       131434 |xxxxxxxxxxxxx |xxxxxxxxxxxxx |xxxxxxxxxxxxx |       262506 |       262506 |       262506 |       262506 |xxxxxxxxxxxxx |xxxxxxxxxxxxx |xxxxxxxxxxxxx |       524650 |       524650 |       524650 |       524650 |xxxxxxxxxxxxx |xxxxxxxxxxxxx |xxxxxxxxxxxxx |      1048938 |      1048938 |      1048938 |      1048938 |xxxxxxxxxxxxx |xxxxxxxxxxxxx |xxxxxxxxxxxxx |      2097514 |      2097514 |      2097514 |      2097514 |xxxxxxxxxxxxx |xxxxxxxxxxxxx |xxxxxxxxxxxxx |      4194666 |      4194666 |      4194666 |      4194666 |xxxxxxxxxxxxx |xxxxxxxxxxxxx |xxxxxxxxxxxxx |      8388970 |      8388970 |      8388970 |      8388970 |
bpred_2lev.used_ras.PP               xxxxxxxxxxxxx |xxxxxxxxxxxxx |xxxxxxxxxxxxx |         8554 |         8554 |         8554 |         8554 |xxxxxxxxxxxxx |xxxxxxxxxxxxx |xxxxxxxxxxxxx |        16746 |        16746 |        16746 |        16746 |xxxxxxxxxxxxx |xxxxxxxxxxxxx |xxxxxxxxxxxxx |        33130 |        33130 |        33130 |        33130 |xxxxxxxxxxxxx |xxxxxxxxxxxxx |xxxxxxxxxxxxx |        65898 |        65898 |        65898 |        65898 |xxxxxxxxxxxxx |xxxxxxxxxxxxx |xxxxxxxxxxxxx |       131434 |       131434 |       131434 |       131434 |xxxxxxxxxxxxx |xxxxxxxxxxxxx |xxxxxxxxxxxxx |       262506 |       262506 |       262506 |       262506 |xxxxxxxxxxxxx |xxxxxxxxxxxxx |xxxxxxxxxxxxx |       524650 |       524650 |       524650 |       524650 |xxxxxxxxxxxxx |xxxxxxxxxxxxx |xxxxxxxxxxxxx |      1048938 |      1048938 |      1048938 |      1048938 |xxxxxxxxxxxxx |xxxxxxxxxxxxx |xxxxxxxxxxxxx |      2097514 |      2097514 |      2097514 |      2097514 |xxxxxxxxxxxxx |xxxxxxxxxxxxx |xxxxxxxxxxxxx |      4194666 |      4194666 |      4194666 |      4194666 |xxxxxxxxxxxxx |xxxxxxxxxxxxx |xxxxxxxxxxxxx |      8388970 |      8388970 |      8388970 |      8388970 |
bpred_2lev.ras_hits.PP               xxxxxxxxxxxxx |xxxxxxxxxxxxx |xxxxxxxxxxxxx |         8553 |         8553 |         8553 |         8553 |xxxxxxxxxxxxx |xxxxxxxxxxxxx |xxxxxxxxxxxxx |        16745 |        16745 |        16745 |        16745 |xxxxxxxxxxxxx |xxxxxxxxxxxxx |xxxxxxxxxxxxx |        33129 |        33129 |        33129 |        33129 |xxxxxxxxxxxxx |xxxxxxxxxxxxx |xxxxxxxxxxxxx |        65897 |        65897 |        65897 |        65897 |xxxxxxxxxxxxx |xxxxxxxxxxxxx |xxxxxxxxxxxxx |       131433 |       131433 |       131433 |       131433 |xxxxxxxxxxxxx |xxxxxxxxxxxxx |xxxxxxxxxxxxx |       262505 |       262505 |       262505 |       262505 |xxxxxxxxxxxxx |xxxxxxxxxxxxx |xxxxxxxxxxxxx |       524649 |       524649 |       524649 |       524649 |xxxxxxxxxxxxx |xxxxxxxxxxxxx |xxxxxxxxxxxxx |      1048937 |      1048937 |      1048937 |      1048937 |xxxxxxxxxxxxx |xxxxxxxxxxxxx |xxxxxxxxxxxxx |      2097513 |      2097513 |      2097513 |      2097513 |xxxxxxxxxxxxx |xxxxxxxxxxxxx |xxxxxxxxxxxxx |      4194665 |      4194665 |      4194665 |      4194665 |xxxxxxxxxxxxx |xxxxxxxxxxxxx |xxxxxxxxxxxxx |      8388969 |      8388969 |      8388969 |      8388969 |
bpred_2lev.ras_rate.PP               xxxxxxxxxxxxx |xxxxxxxxxxxxx |xxxxxxxxxxxxx |       0.9999 |       0.9999 |       0.9999 |       0.9999 |xxxxxxxxxxxxx |xxxxxxxxxxxxx |xxxxxxxxxxxxx |       0.9999 |       0.9999 |       0.9999 |       0.9999 |xxxxxxxxxxxxx |xxxxxxxxxxxxx |xxxxxxxxxxxxx |       1.0000 |       1.0000 |       1.0000 |       1.0000 |xxxxxxxxxxxxx |xxxxxxxxxxxxx |xxxxxxxxxxxxx |       1.0000 |       1.0000 |       1.0000 |       1.0000 |xxxxxxxxxxxxx |xxxxxxxxxxxxx |xxxxxxxxxxxxx |       1.0000 |       1.0000 |       1.0000 |       1.0000 |xxxxxxxxxxxxx |xxxxxxxxxxxxx |xxxxxxxxxxxxx |       1.0000 |       1.0000 |       1.0000 |       1.0000 |xxxxxxxxxxxxx |xxxxxxxxxxxxx |xxxxxxxxxxxxx |       1.0000 |       1.0000 |       1.0000 |       1.0000 |xxxxxxxxxxxxx |xxxxxxxxxxxxx |xxxxxxxxxxxxx |       1.0000 |       1.0000 |       1.0000 |       1.0000 |xxxxxxxxxxxxx |xxxxxxxxxxxxx |xxxxxxxxxxxxx |       1.0000 |       1.0000 |       1.0000 |       1.0000 |xxxxxxxxxxxxx |xxxxxxxxxxxxx |xxxxxxxxxxxxx |       1.0000 |       1.0000 |       1.0000 |       1.0000 |xxxxxxxxxxxxx |xxxxxxxxxxxxx |xxxxxxxxxxxxx |       1.0000 |       1.0000 |       1.0000 |       1.0000 |

Command list: 
	sslittle-na-sstrix-gcc -Wall -O3 -funroll-loops -finline-functions  -DRANDOM_SIZE=4096 -DSEED=0 -DSORT=do_nothing do_nothing2008620104.c simpleMain.c -o do_nothing962667666
	sim-cache -cache:dl1 dl1:256:32:1:l -cache:dl2 dl2:131072:32:1:l -cache:il1 il1:256:32:1:l -cache:il2 dl2 do_nothing962667666
	sim-cache -cache:dl1 dl1:256:32:1:l -cache:dl2 dl2:65536:32:1:l -cache:il1 il1:256:32:1:l -cache:il2 dl2 do_nothing962667666
	sim-cache -cache:dl1 dl1:1:32:256:l -cache:dl2 dl2:1:32:131072:l -cache:il1 il1:1:32:256:l -cache:il2 dl2 do_nothing962667666
	sim-cache -cache:dl1 dl1:1:32:256:l -cache:dl2 dl2:1:32:65536:l -cache:il1 il1:1:32:256:l -cache:il2 dl2 do_nothing962667666
	sim-bpred -bpred bimod -bpred:bimod 512 do_nothing962667666
	sim-bpred -bpred bimod -bpred:bimod 1024 do_nothing962667666
	sim-bpred -bpred bimod -bpred:bimod 2048 do_nothing962667666
	sim-bpred -bpred 2lev -bpred:2lev 1 512 10 1 do_nothing962667666
	sim-bpred -bpred 2lev -bpred:2lev 1 1024 10 1 do_nothing962667666
	sim-bpred -bpred 2lev -bpred:2lev 1 2048 10 1 do_nothing962667666
	sim-bpred -bpred 2lev -bpred:2lev 1 4096 10 1 do_nothing962667666
	sslittle-na-sstrix-gcc -Wall -O3 -funroll-loops -finline-functions  -DRANDOM_SIZE=8192 -DSEED=0 -DSORT=do_nothing do_nothing2008620104.c simpleMain.c -o do_nothing962667666
	sim-cache -cache:dl1 dl1:256:32:1:l -cache:dl2 dl2:131072:32:1:l -cache:il1 il1:256:32:1:l -cache:il2 dl2 do_nothing962667666
	sim-cache -cache:dl1 dl1:256:32:1:l -cache:dl2 dl2:65536:32:1:l -cache:il1 il1:256:32:1:l -cache:il2 dl2 do_nothing962667666
	sim-cache -cache:dl1 dl1:1:32:256:l -cache:dl2 dl2:1:32:131072:l -cache:il1 il1:1:32:256:l -cache:il2 dl2 do_nothing962667666
	sim-cache -cache:dl1 dl1:1:32:256:l -cache:dl2 dl2:1:32:65536:l -cache:il1 il1:1:32:256:l -cache:il2 dl2 do_nothing962667666
	sim-bpred -bpred bimod -bpred:bimod 512 do_nothing962667666
	sim-bpred -bpred bimod -bpred:bimod 1024 do_nothing962667666
	sim-bpred -bpred bimod -bpred:bimod 2048 do_nothing962667666
	sim-bpred -bpred 2lev -bpred:2lev 1 512 10 1 do_nothing962667666
	sim-bpred -bpred 2lev -bpred:2lev 1 1024 10 1 do_nothing962667666
	sim-bpred -bpred 2lev -bpred:2lev 1 2048 10 1 do_nothing962667666
	sim-bpred -bpred 2lev -bpred:2lev 1 4096 10 1 do_nothing962667666
	sslittle-na-sstrix-gcc -Wall -O3 -funroll-loops -finline-functions  -DRANDOM_SIZE=16384 -DSEED=0 -DSORT=do_nothing do_nothing2008620104.c simpleMain.c -o do_nothing962667666
	sim-cache -cache:dl1 dl1:256:32:1:l -cache:dl2 dl2:131072:32:1:l -cache:il1 il1:256:32:1:l -cache:il2 dl2 do_nothing962667666
	sim-cache -cache:dl1 dl1:256:32:1:l -cache:dl2 dl2:65536:32:1:l -cache:il1 il1:256:32:1:l -cache:il2 dl2 do_nothing962667666
	sim-cache -cache:dl1 dl1:1:32:256:l -cache:dl2 dl2:1:32:131072:l -cache:il1 il1:1:32:256:l -cache:il2 dl2 do_nothing962667666
	sim-cache -cache:dl1 dl1:1:32:256:l -cache:dl2 dl2:1:32:65536:l -cache:il1 il1:1:32:256:l -cache:il2 dl2 do_nothing962667666
	sim-bpred -bpred bimod -bpred:bimod 512 do_nothing962667666
	sim-bpred -bpred bimod -bpred:bimod 1024 do_nothing962667666
	sim-bpred -bpred bimod -bpred:bimod 2048 do_nothing962667666
	sim-bpred -bpred 2lev -bpred:2lev 1 512 10 1 do_nothing962667666
	sim-bpred -bpred 2lev -bpred:2lev 1 1024 10 1 do_nothing962667666
	sim-bpred -bpred 2lev -bpred:2lev 1 2048 10 1 do_nothing962667666
	sim-bpred -bpred 2lev -bpred:2lev 1 4096 10 1 do_nothing962667666
	sslittle-na-sstrix-gcc -Wall -O3 -funroll-loops -finline-functions  -DRANDOM_SIZE=32768 -DSEED=0 -DSORT=do_nothing do_nothing2008620104.c simpleMain.c -o do_nothing962667666
	sim-cache -cache:dl1 dl1:256:32:1:l -cache:dl2 dl2:131072:32:1:l -cache:il1 il1:256:32:1:l -cache:il2 dl2 do_nothing962667666
	sim-cache -cache:dl1 dl1:256:32:1:l -cache:dl2 dl2:65536:32:1:l -cache:il1 il1:256:32:1:l -cache:il2 dl2 do_nothing962667666
	sim-cache -cache:dl1 dl1:1:32:256:l -cache:dl2 dl2:1:32:131072:l -cache:il1 il1:1:32:256:l -cache:il2 dl2 do_nothing962667666
	sim-cache -cache:dl1 dl1:1:32:256:l -cache:dl2 dl2:1:32:65536:l -cache:il1 il1:1:32:256:l -cache:il2 dl2 do_nothing962667666
	sim-bpred -bpred bimod -bpred:bimod 512 do_nothing962667666
	sim-bpred -bpred bimod -bpred:bimod 1024 do_nothing962667666
	sim-bpred -bpred bimod -bpred:bimod 2048 do_nothing962667666
	sim-bpred -bpred 2lev -bpred:2lev 1 512 10 1 do_nothing962667666
	sim-bpred -bpred 2lev -bpred:2lev 1 1024 10 1 do_nothing962667666
	sim-bpred -bpred 2lev -bpred:2lev 1 2048 10 1 do_nothing962667666
	sim-bpred -bpred 2lev -bpred:2lev 1 4096 10 1 do_nothing962667666
	sslittle-na-sstrix-gcc -Wall -O3 -funroll-loops -finline-functions  -DRANDOM_SIZE=65536 -DSEED=0 -DSORT=do_nothing do_nothing2008620104.c simpleMain.c -o do_nothing962667666
	sim-cache -cache:dl1 dl1:256:32:1:l -cache:dl2 dl2:131072:32:1:l -cache:il1 il1:256:32:1:l -cache:il2 dl2 do_nothing962667666
	sim-cache -cache:dl1 dl1:256:32:1:l -cache:dl2 dl2:65536:32:1:l -cache:il1 il1:256:32:1:l -cache:il2 dl2 do_nothing962667666
	sim-cache -cache:dl1 dl1:1:32:256:l -cache:dl2 dl2:1:32:131072:l -cache:il1 il1:1:32:256:l -cache:il2 dl2 do_nothing962667666
	sim-cache -cache:dl1 dl1:1:32:256:l -cache:dl2 dl2:1:32:65536:l -cache:il1 il1:1:32:256:l -cache:il2 dl2 do_nothing962667666
	sim-bpred -bpred bimod -bpred:bimod 512 do_nothing962667666
	sim-bpred -bpred bimod -bpred:bimod 1024 do_nothing962667666
	sim-bpred -bpred bimod -bpred:bimod 2048 do_nothing962667666
	sim-bpred -bpred 2lev -bpred:2lev 1 512 10 1 do_nothing962667666
	sim-bpred -bpred 2lev -bpred:2lev 1 1024 10 1 do_nothing962667666
	sim-bpred -bpred 2lev -bpred:2lev 1 2048 10 1 do_nothing962667666
	sim-bpred -bpred 2lev -bpred:2lev 1 4096 10 1 do_nothing962667666
	sslittle-na-sstrix-gcc -Wall -O3 -funroll-loops -finline-functions  -DRANDOM_SIZE=131072 -DSEED=0 -DSORT=do_nothing do_nothing2008620104.c simpleMain.c -o do_nothing962667666
	sim-cache -cache:dl1 dl1:256:32:1:l -cache:dl2 dl2:131072:32:1:l -cache:il1 il1:256:32:1:l -cache:il2 dl2 do_nothing962667666
	sim-cache -cache:dl1 dl1:256:32:1:l -cache:dl2 dl2:65536:32:1:l -cache:il1 il1:256:32:1:l -cache:il2 dl2 do_nothing962667666
	sim-cache -cache:dl1 dl1:1:32:256:l -cache:dl2 dl2:1:32:131072:l -cache:il1 il1:1:32:256:l -cache:il2 dl2 do_nothing962667666
	sim-cache -cache:dl1 dl1:1:32:256:l -cache:dl2 dl2:1:32:65536:l -cache:il1 il1:1:32:256:l -cache:il2 dl2 do_nothing962667666
	sim-bpred -bpred bimod -bpred:bimod 512 do_nothing962667666
	sim-bpred -bpred bimod -bpred:bimod 1024 do_nothing962667666
	sim-bpred -bpred bimod -bpred:bimod 2048 do_nothing962667666
	sim-bpred -bpred 2lev -bpred:2lev 1 512 10 1 do_nothing962667666
	sim-bpred -bpred 2lev -bpred:2lev 1 1024 10 1 do_nothing962667666
	sim-bpred -bpred 2lev -bpred:2lev 1 2048 10 1 do_nothing962667666
	sim-bpred -bpred 2lev -bpred:2lev 1 4096 10 1 do_nothing962667666
	sslittle-na-sstrix-gcc -Wall -O3 -funroll-loops -finline-functions  -DRANDOM_SIZE=262144 -DSEED=0 -DSORT=do_nothing do_nothing2008620104.c simpleMain.c -o do_nothing962667666
	sim-cache -cache:dl1 dl1:256:32:1:l -cache:dl2 dl2:131072:32:1:l -cache:il1 il1:256:32:1:l -cache:il2 dl2 do_nothing962667666
	sim-cache -cache:dl1 dl1:256:32:1:l -cache:dl2 dl2:65536:32:1:l -cache:il1 il1:256:32:1:l -cache:il2 dl2 do_nothing962667666
	sim-cache -cache:dl1 dl1:1:32:256:l -cache:dl2 dl2:1:32:131072:l -cache:il1 il1:1:32:256:l -cache:il2 dl2 do_nothing962667666
	sim-cache -cache:dl1 dl1:1:32:256:l -cache:dl2 dl2:1:32:65536:l -cache:il1 il1:1:32:256:l -cache:il2 dl2 do_nothing962667666
	sim-bpred -bpred bimod -bpred:bimod 512 do_nothing962667666
	sim-bpred -bpred bimod -bpred:bimod 1024 do_nothing962667666
	sim-bpred -bpred bimod -bpred:bimod 2048 do_nothing962667666
	sim-bpred -bpred 2lev -bpred:2lev 1 512 10 1 do_nothing962667666
	sim-bpred -bpred 2lev -bpred:2lev 1 1024 10 1 do_nothing962667666
	sim-bpred -bpred 2lev -bpred:2lev 1 2048 10 1 do_nothing962667666
	sim-bpred -bpred 2lev -bpred:2lev 1 4096 10 1 do_nothing962667666
	sslittle-na-sstrix-gcc -Wall -O3 -funroll-loops -finline-functions  -DRANDOM_SIZE=524288 -DSEED=0 -DSORT=do_nothing do_nothing2008620104.c simpleMain.c -o do_nothing962667666
	sim-cache -cache:dl1 dl1:256:32:1:l -cache:dl2 dl2:131072:32:1:l -cache:il1 il1:256:32:1:l -cache:il2 dl2 do_nothing962667666
	sim-cache -cache:dl1 dl1:256:32:1:l -cache:dl2 dl2:65536:32:1:l -cache:il1 il1:256:32:1:l -cache:il2 dl2 do_nothing962667666
	sim-cache -cache:dl1 dl1:1:32:256:l -cache:dl2 dl2:1:32:131072:l -cache:il1 il1:1:32:256:l -cache:il2 dl2 do_nothing962667666
	sim-cache -cache:dl1 dl1:1:32:256:l -cache:dl2 dl2:1:32:65536:l -cache:il1 il1:1:32:256:l -cache:il2 dl2 do_nothing962667666
	sim-bpred -bpred bimod -bpred:bimod 512 do_nothing962667666
	sim-bpred -bpred bimod -bpred:bimod 1024 do_nothing962667666
	sim-bpred -bpred bimod -bpred:bimod 2048 do_nothing962667666
	sim-bpred -bpred 2lev -bpred:2lev 1 512 10 1 do_nothing962667666
	sim-bpred -bpred 2lev -bpred:2lev 1 1024 10 1 do_nothing962667666
	sim-bpred -bpred 2lev -bpred:2lev 1 2048 10 1 do_nothing962667666
	sim-bpred -bpred 2lev -bpred:2lev 1 4096 10 1 do_nothing962667666
	sslittle-na-sstrix-gcc -Wall -O3 -funroll-loops -finline-functions  -DRANDOM_SIZE=1048576 -DSEED=0 -DSORT=do_nothing do_nothing2008620104.c simpleMain.c -o do_nothing962667666
	sim-cache -cache:dl1 dl1:256:32:1:l -cache:dl2 dl2:131072:32:1:l -cache:il1 il1:256:32:1:l -cache:il2 dl2 do_nothing962667666
	sim-cache -cache:dl1 dl1:256:32:1:l -cache:dl2 dl2:65536:32:1:l -cache:il1 il1:256:32:1:l -cache:il2 dl2 do_nothing962667666
	sim-cache -cache:dl1 dl1:1:32:256:l -cache:dl2 dl2:1:32:131072:l -cache:il1 il1:1:32:256:l -cache:il2 dl2 do_nothing962667666
	sim-cache -cache:dl1 dl1:1:32:256:l -cache:dl2 dl2:1:32:65536:l -cache:il1 il1:1:32:256:l -cache:il2 dl2 do_nothing962667666
	sim-bpred -bpred bimod -bpred:bimod 512 do_nothing962667666
	sim-bpred -bpred bimod -bpred:bimod 1024 do_nothing962667666
	sim-bpred -bpred bimod -bpred:bimod 2048 do_nothing962667666
	sim-bpred -bpred 2lev -bpred:2lev 1 512 10 1 do_nothing962667666
	sim-bpred -bpred 2lev -bpred:2lev 1 1024 10 1 do_nothing962667666
	sim-bpred -bpred 2lev -bpred:2lev 1 2048 10 1 do_nothing962667666
	sim-bpred -bpred 2lev -bpred:2lev 1 4096 10 1 do_nothing962667666
	sslittle-na-sstrix-gcc -Wall -O3 -funroll-loops -finline-functions  -DRANDOM_SIZE=2097152 -DSEED=0 -DSORT=do_nothing do_nothing2008620104.c simpleMain.c -o do_nothing962667666
	sim-cache -cache:dl1 dl1:256:32:1:l -cache:dl2 dl2:131072:32:1:l -cache:il1 il1:256:32:1:l -cache:il2 dl2 do_nothing962667666
	sim-cache -cache:dl1 dl1:256:32:1:l -cache:dl2 dl2:65536:32:1:l -cache:il1 il1:256:32:1:l -cache:il2 dl2 do_nothing962667666
	sim-cache -cache:dl1 dl1:1:32:256:l -cache:dl2 dl2:1:32:131072:l -cache:il1 il1:1:32:256:l -cache:il2 dl2 do_nothing962667666
	sim-cache -cache:dl1 dl1:1:32:256:l -cache:dl2 dl2:1:32:65536:l -cache:il1 il1:1:32:256:l -cache:il2 dl2 do_nothing962667666
	sim-bpred -bpred bimod -bpred:bimod 512 do_nothing962667666
	sim-bpred -bpred bimod -bpred:bimod 1024 do_nothing962667666
	sim-bpred -bpred bimod -bpred:bimod 2048 do_nothing962667666
	sim-bpred -bpred 2lev -bpred:2lev 1 512 10 1 do_nothing962667666
	sim-bpred -bpred 2lev -bpred:2lev 1 1024 10 1 do_nothing962667666
	sim-bpred -bpred 2lev -bpred:2lev 1 2048 10 1 do_nothing962667666
	sim-bpred -bpred 2lev -bpred:2lev 1 4096 10 1 do_nothing962667666
	sslittle-na-sstrix-gcc -Wall -O3 -funroll-loops -finline-functions  -DRANDOM_SIZE=4194304 -DSEED=0 -DSORT=do_nothing do_nothing2008620104.c simpleMain.c -o do_nothing962667666
	sim-cache -cache:dl1 dl1:256:32:1:l -cache:dl2 dl2:131072:32:1:l -cache:il1 il1:256:32:1:l -cache:il2 dl2 do_nothing962667666
	sim-cache -cache:dl1 dl1:256:32:1:l -cache:dl2 dl2:65536:32:1:l -cache:il1 il1:256:32:1:l -cache:il2 dl2 do_nothing962667666
	sim-cache -cache:dl1 dl1:1:32:256:l -cache:dl2 dl2:1:32:131072:l -cache:il1 il1:1:32:256:l -cache:il2 dl2 do_nothing962667666
	sim-cache -cache:dl1 dl1:1:32:256:l -cache:dl2 dl2:1:32:65536:l -cache:il1 il1:1:32:256:l -cache:il2 dl2 do_nothing962667666
	sim-bpred -bpred bimod -bpred:bimod 512 do_nothing962667666
	sim-bpred -bpred bimod -bpred:bimod 1024 do_nothing962667666
	sim-bpred -bpred bimod -bpred:bimod 2048 do_nothing962667666
	sim-bpred -bpred 2lev -bpred:2lev 1 512 10 1 do_nothing962667666
	sim-bpred -bpred 2lev -bpred:2lev 1 1024 10 1 do_nothing962667666
	sim-bpred -bpred 2lev -bpred:2lev 1 2048 10 1 do_nothing962667666
	sim-bpred -bpred 2lev -bpred:2lev 1 4096 10 1 do_nothing962667666
