Tue Mar 23 22:29:51 2004
Run as: "./simple -c  -M 65536 on2_insertsort"
-------------------------------------------------------------------------------------------------
sim-cache                                     4096 |         4096 |         4096 |         4096 |         8192 |         8192 |         8192 |         8192 |        16384 |        16384 |        16384 |        16384 |        32768 |        32768 |        32768 |        32768 |        65536 |        65536 |        65536 |        65536 |
-cache:dl1 dl1:256:32:1:l -cache:dl2 dl2:131072:32:1:l -cache:il1 il1:256:32:1:l -cache:il2 dl2
-cache:dl1 dl1:256:32:1:l -cache:dl2 dl2:65536:32:1:l -cache:il1 il1:256:32:1:l -cache:il2 dl2
-cache:dl1 dl1:1:32:256:l -cache:dl2 dl2:1:32:131072:l -cache:il1 il1:1:32:256:l -cache:il2 dl2
-cache:dl1 dl1:1:32:256:l -cache:dl2 dl2:1:32:65536:l -cache:il1 il1:1:32:256:l -cache:il2 dl2
-------------------------------------------------------------------------------------------------
sim_num_insn                              29746553 |     29746553 |     29746553 |     29746553 |    119078633 |    119078633 |    119078633 |    119078633 |    466157167 |    466157167 |    466157167 |    466157167 |   1871734968 |   1871734968 |   1871734968 |   1871734968 |   7477705675 |   7477705675 |   7477705675 |   7477705675 |
sim_num_refs                              12740844 |     12740844 |     12740844 |     12740844 |     51017453 |     51017453 |     51017453 |     51017453 |    199748265 |    199748265 |    199748265 |    199748265 |    802104494 |    802104494 |    802104494 |    802104494 |   3204594850 |   3204594850 |   3204594850 |   3204594850 |
sim_elapsed_time                                 8 |            9 |           15 |           11 |           34 |           34 |           43 |           39 |          135 |          135 |          148 |          140 |          543 |          543 |          563 |          550 |         3229 |         3488 |         2196 |         2545 |
sim_inst_rate                         3718319.1250 | 3305172.5556 | 1983103.5333 | 2704232.0909 | 3502312.7353 | 3502312.7353 | 2769270.5349 | 3053298.2821 | 3453016.0519 | 3453016.0519 | 3149710.5878 | 3329694.0500 | 3447025.7238 | 3447025.7238 | 3324573.6554 | 3403154.4873 | 2315796.1211 | 2143837.6362 | 3405148.3037 | 2938194.7642 |
il1.accesses                              29746553 |     29746553 |     29746553 |     29746553 |    119078633 |    119078633 |    119078633 |    119078633 |    466157167 |    466157167 |    466157167 |    466157167 |   1871734968 |   1871734968 |   1871734968 |   1871734968 |   7477705675 |   7477705675 |   7477705675 |   7477705675 |
il1.hits                                  29746148 |     29746148 |     29746214 |     29746214 |    119078227 |    119078227 |    119078293 |    119078293 |    466156763 |    466156763 |    466156821 |    466156821 |   1871734563 |   1871734563 |   1871734621 |   1871734621 |   7477705270 |   7477705270 |   7477705328 |   7477705328 |
il1.misses                                     405 |          405 |          339 |          339 |          406 |          406 |          340 |          340 |          404 |          404 |          346 |          346 |          405 |          405 |          347 |          347 |          405 |          405 |          347 |          347 |
il1.replacements                               216 |          216 |           83 |           83 |          215 |          215 |           84 |           84 |          209 |          209 |           90 |           90 |          210 |          210 |           91 |           91 |          210 |          210 |           91 |           91 |
il1.writebacks                                   0 |            0 |            0 |            0 |            0 |            0 |            0 |            0 |            0 |            0 |            0 |            0 |            0 |            0 |            0 |            0 |            0 |            0 |            0 |            0 |
il1.invalidations                                0 |            0 |            0 |            0 |            0 |            0 |            0 |            0 |            0 |            0 |            0 |            0 |            0 |            0 |            0 |            0 |            0 |            0 |            0 |            0 |
il1.miss_rate                               0.0000 |       0.0000 |       0.0000 |       0.0000 |       0.0000 |       0.0000 |       0.0000 |       0.0000 |       0.0000 |       0.0000 |       0.0000 |       0.0000 |       0.0000 |       0.0000 |       0.0000 |       0.0000 |       0.0000 |       0.0000 |       0.0000 |       0.0000 |
il1.repl_rate                               0.0000 |       0.0000 |       0.0000 |       0.0000 |       0.0000 |       0.0000 |       0.0000 |       0.0000 |       0.0000 |       0.0000 |       0.0000 |       0.0000 |       0.0000 |       0.0000 |       0.0000 |       0.0000 |       0.0000 |       0.0000 |       0.0000 |       0.0000 |
il1.wb_rate                                 0.0000 |       0.0000 |       0.0000 |       0.0000 |       0.0000 |       0.0000 |       0.0000 |       0.0000 |       0.0000 |       0.0000 |       0.0000 |       0.0000 |       0.0000 |       0.0000 |       0.0000 |       0.0000 |       0.0000 |       0.0000 |       0.0000 |       0.0000 |
il1.inv_rate                                0.0000 |       0.0000 |       0.0000 |       0.0000 |       0.0000 |       0.0000 |       0.0000 |       0.0000 |       0.0000 |       0.0000 |       0.0000 |       0.0000 |       0.0000 |       0.0000 |       0.0000 |       0.0000 |       0.0000 |       0.0000 |       0.0000 |       0.0000 |
dl1.accesses                              12740914 |     12740914 |     12740914 |     12740914 |     51017523 |     51017523 |     51017523 |     51017523 |    199748335 |    199748335 |    199748335 |    199748335 |    802104564 |    802104564 |    802104564 |    802104564 |   3204594920 |   3204594920 |   3204594920 |   3204594920 |
dl1.hits                                  12632265 |     12632265 |     12520334 |     12520334 |     49669449 |     49669449 |     49379169 |     49379169 |    192574278 |    192574278 |    192098910 |    192098910 |    770190443 |    770190443 |    769531662 |    769531662 |   3072944115 |   3072944115 |   3072097545 |   3072097545 |
dl1.misses                                  108649 |       108649 |       220580 |       220580 |      1348074 |      1348074 |      1638354 |      1638354 |      7174057 |      7174057 |      7649425 |      7649425 |     31914121 |     31914121 |     32572902 |     32572902 |    131650805 |    131650805 |    132497375 |    132497375 |
dl1.replacements                            108393 |       108393 |       220324 |       220324 |      1347818 |      1347818 |      1638098 |      1638098 |      7173801 |      7173801 |      7649169 |      7649169 |     31913865 |     31913865 |     32572646 |     32572646 |    131650549 |    131650549 |    132497119 |    132497119 |
dl1.writebacks                              107794 |       107794 |       219741 |       219741 |      1346372 |      1346372 |      1636685 |      1636685 |      7170405 |      7170405 |      7645899 |      7645899 |     31906394 |     31906394 |     32565437 |     32565437 |    131634772 |    131634772 |    132481891 |    132481891 |
dl1.invalidations                                0 |            0 |            0 |            0 |            0 |            0 |            0 |            0 |            0 |            0 |            0 |            0 |            0 |            0 |            0 |            0 |            0 |            0 |            0 |            0 |
dl1.miss_rate                               0.0085 |       0.0085 |       0.0173 |       0.0173 |       0.0264 |       0.0264 |       0.0321 |       0.0321 |       0.0359 |       0.0359 |       0.0383 |       0.0383 |       0.0398 |       0.0398 |       0.0406 |       0.0406 |       0.0411 |       0.0411 |       0.0413 |       0.0413 |
dl1.repl_rate                               0.0085 |       0.0085 |       0.0173 |       0.0173 |       0.0264 |       0.0264 |       0.0321 |       0.0321 |       0.0359 |       0.0359 |       0.0383 |       0.0383 |       0.0398 |       0.0398 |       0.0406 |       0.0406 |       0.0411 |       0.0411 |       0.0413 |       0.0413 |
dl1.wb_rate                                 0.0085 |       0.0085 |       0.0172 |       0.0172 |       0.0264 |       0.0264 |       0.0321 |       0.0321 |       0.0359 |       0.0359 |       0.0383 |       0.0383 |       0.0398 |       0.0398 |       0.0406 |       0.0406 |       0.0411 |       0.0411 |       0.0413 |       0.0413 |
dl1.inv_rate                                0.0000 |       0.0000 |       0.0000 |       0.0000 |       0.0000 |       0.0000 |       0.0000 |       0.0000 |       0.0000 |       0.0000 |       0.0000 |       0.0000 |       0.0000 |       0.0000 |       0.0000 |       0.0000 |       0.0000 |       0.0000 |       0.0000 |       0.0000 |
dl2.accesses                                216848 |       216848 |       440660 |       440660 |      2694852 |      2694852 |      3275379 |      3275379 |     14344866 |     14344866 |     15295670 |     15295670 |     63820920 |     63820920 |     65138686 |     65138686 |    263285982 |    263285982 |    264979613 |    264979613 |
dl2.hits                                    215549 |       215549 |       439394 |       439394 |      2693040 |      2693040 |      3273600 |      3273600 |     14342026 |     14342026 |     15292863 |     15292863 |     63816030 |     63816030 |     65133830 |     65133830 |    263276996 |    263276996 |    264970661 |    264970661 |
dl2.misses                                    1299 |         1299 |         1266 |         1266 |         1812 |         1812 |         1779 |         1779 |         2840 |         2840 |         2807 |         2807 |         4890 |         4890 |         4856 |         4856 |         8986 |         8986 |         8952 |         8952 |
dl2.replacements                               213 |          213 |            0 |            0 |          213 |          213 |            0 |            0 |          210 |          210 |            0 |            0 |          211 |          211 |            0 |            0 |          211 |          211 |            0 |            0 |
dl2.writebacks                                  32 |           32 |            0 |            0 |           33 |           33 |            0 |            0 |           35 |           35 |            0 |            0 |           35 |           35 |            0 |            0 |           35 |           35 |            0 |            0 |
dl2.invalidations                                0 |            0 |            0 |            0 |            0 |            0 |            0 |            0 |            0 |            0 |            0 |            0 |            0 |            0 |            0 |            0 |            0 |            0 |            0 |            0 |
dl2.miss_rate                               0.0060 |       0.0060 |       0.0029 |       0.0029 |       0.0007 |       0.0007 |       0.0005 |       0.0005 |       0.0002 |       0.0002 |       0.0002 |       0.0002 |       0.0001 |       0.0001 |       0.0001 |       0.0001 |       0.0000 |       0.0000 |       0.0000 |       0.0000 |
dl2.repl_rate                               0.0010 |       0.0010 |       0.0000 |       0.0000 |       0.0001 |       0.0001 |       0.0000 |       0.0000 |       0.0000 |       0.0000 |       0.0000 |       0.0000 |       0.0000 |       0.0000 |       0.0000 |       0.0000 |       0.0000 |       0.0000 |       0.0000 |       0.0000 |
dl2.wb_rate                                 0.0001 |       0.0001 |       0.0000 |       0.0000 |       0.0000 |       0.0000 |       0.0000 |       0.0000 |       0.0000 |       0.0000 |       0.0000 |       0.0000 |       0.0000 |       0.0000 |       0.0000 |       0.0000 |       0.0000 |       0.0000 |       0.0000 |       0.0000 |
dl2.inv_rate                                0.0000 |       0.0000 |       0.0000 |       0.0000 |       0.0000 |       0.0000 |       0.0000 |       0.0000 |       0.0000 |       0.0000 |       0.0000 |       0.0000 |       0.0000 |       0.0000 |       0.0000 |       0.0000 |       0.0000 |       0.0000 |       0.0000 |       0.0000 |
itlb.accesses                             29746553 |     29746553 |     29746553 |     29746553 |    119078633 |    119078633 |    119078633 |    119078633 |    466157167 |    466157167 |    466157167 |    466157167 |   1871734968 |   1871734968 |   1871734968 |   1871734968 |   7477705675 |   7477705675 |   7477705675 |   7477705675 |
itlb.hits                                 29746546 |     29746546 |     29746546 |     29746546 |    119078626 |    119078626 |    119078626 |    119078626 |    466157160 |    466157160 |    466157160 |    466157160 |   1871734961 |   1871734961 |   1871734961 |   1871734961 |   7477705668 |   7477705668 |   7477705668 |   7477705668 |
itlb.misses                                      7 |            7 |            7 |            7 |            7 |            7 |            7 |            7 |            7 |            7 |            7 |            7 |            7 |            7 |            7 |            7 |            7 |            7 |            7 |            7 |
itlb.replacements                                0 |            0 |            0 |            0 |            0 |            0 |            0 |            0 |            0 |            0 |            0 |            0 |            0 |            0 |            0 |            0 |            0 |            0 |            0 |            0 |
itlb.writebacks                                  0 |            0 |            0 |            0 |            0 |            0 |            0 |            0 |            0 |            0 |            0 |            0 |            0 |            0 |            0 |            0 |            0 |            0 |            0 |            0 |
itlb.invalidations                               0 |            0 |            0 |            0 |            0 |            0 |            0 |            0 |            0 |            0 |            0 |            0 |            0 |            0 |            0 |            0 |            0 |            0 |            0 |            0 |
itlb.miss_rate                              0.0000 |       0.0000 |       0.0000 |       0.0000 |       0.0000 |       0.0000 |       0.0000 |       0.0000 |       0.0000 |       0.0000 |       0.0000 |       0.0000 |       0.0000 |       0.0000 |       0.0000 |       0.0000 |       0.0000 |       0.0000 |       0.0000 |       0.0000 |
itlb.repl_rate                              0.0000 |       0.0000 |       0.0000 |       0.0000 |       0.0000 |       0.0000 |       0.0000 |       0.0000 |       0.0000 |       0.0000 |       0.0000 |       0.0000 |       0.0000 |       0.0000 |       0.0000 |       0.0000 |       0.0000 |       0.0000 |       0.0000 |       0.0000 |
itlb.wb_rate                                0.0000 |       0.0000 |       0.0000 |       0.0000 |       0.0000 |       0.0000 |       0.0000 |       0.0000 |       0.0000 |       0.0000 |       0.0000 |       0.0000 |       0.0000 |       0.0000 |       0.0000 |       0.0000 |       0.0000 |       0.0000 |       0.0000 |       0.0000 |
itlb.inv_rate                               0.0000 |       0.0000 |       0.0000 |       0.0000 |       0.0000 |       0.0000 |       0.0000 |       0.0000 |       0.0000 |       0.0000 |       0.0000 |       0.0000 |       0.0000 |       0.0000 |       0.0000 |       0.0000 |       0.0000 |       0.0000 |       0.0000 |       0.0000 |
dtlb.accesses                             12740914 |     12740914 |     12740914 |     12740914 |     51017523 |     51017523 |     51017523 |     51017523 |    199748335 |    199748335 |    199748335 |    199748335 |    802104564 |    802104564 |    802104564 |    802104564 |   3204594920 |   3204594920 |   3204594920 |   3204594920 |
dtlb.hits                                 12740904 |     12740904 |     12740904 |     12740904 |     51017509 |     51017509 |     51017509 |     51017509 |    199748313 |    199748313 |    199748313 |    199748313 |    802104526 |    802104526 |    802104526 |    802104526 |   3204594850 |   3204594850 |   3204594850 |   3204594850 |
dtlb.misses                                     10 |           10 |           10 |           10 |           14 |           14 |           14 |           14 |           22 |           22 |           22 |           22 |           38 |           38 |           38 |           38 |           70 |           70 |           70 |           70 |
dtlb.replacements                                0 |            0 |            0 |            0 |            0 |            0 |            0 |            0 |            0 |            0 |            0 |            0 |            0 |            0 |            0 |            0 |            0 |            0 |            0 |            0 |
dtlb.writebacks                                  0 |            0 |            0 |            0 |            0 |            0 |            0 |            0 |            0 |            0 |            0 |            0 |            0 |            0 |            0 |            0 |            0 |            0 |            0 |            0 |
dtlb.invalidations                               0 |            0 |            0 |            0 |            0 |            0 |            0 |            0 |            0 |            0 |            0 |            0 |            0 |            0 |            0 |            0 |            0 |            0 |            0 |            0 |
dtlb.miss_rate                              0.0000 |       0.0000 |       0.0000 |       0.0000 |       0.0000 |       0.0000 |       0.0000 |       0.0000 |       0.0000 |       0.0000 |       0.0000 |       0.0000 |       0.0000 |       0.0000 |       0.0000 |       0.0000 |       0.0000 |       0.0000 |       0.0000 |       0.0000 |
dtlb.repl_rate                              0.0000 |       0.0000 |       0.0000 |       0.0000 |       0.0000 |       0.0000 |       0.0000 |       0.0000 |       0.0000 |       0.0000 |       0.0000 |       0.0000 |       0.0000 |       0.0000 |       0.0000 |       0.0000 |       0.0000 |       0.0000 |       0.0000 |       0.0000 |
dtlb.wb_rate                                0.0000 |       0.0000 |       0.0000 |       0.0000 |       0.0000 |       0.0000 |       0.0000 |       0.0000 |       0.0000 |       0.0000 |       0.0000 |       0.0000 |       0.0000 |       0.0000 |       0.0000 |       0.0000 |       0.0000 |       0.0000 |       0.0000 |       0.0000 |
dtlb.inv_rate                               0.0000 |       0.0000 |       0.0000 |       0.0000 |       0.0000 |       0.0000 |       0.0000 |       0.0000 |       0.0000 |       0.0000 |       0.0000 |       0.0000 |       0.0000 |       0.0000 |       0.0000 |       0.0000 |       0.0000 |       0.0000 |       0.0000 |       0.0000 |
ld_text_base                            0x00400000 |   0x00400000 |   0x00400000 |   0x00400000 |   0x00400000 |   0x00400000 |   0x00400000 |   0x00400000 |   0x00400000 |   0x00400000 |   0x00400000 |   0x00400000 |   0x00400000 |   0x00400000 |   0x00400000 |   0x00400000 |   0x00400000 |   0x00400000 |   0x00400000 |   0x00400000 |
ld_text_size                                 26672 |        26672 |        26672 |        26672 |        26704 |        26704 |        26704 |        26704 |        26720 |        26720 |        26720 |        26720 |        26752 |        26752 |        26752 |        26752 |        26752 |        26752 |        26752 |        26752 |
ld_data_base                            0x10000000 |   0x10000000 |   0x10000000 |   0x10000000 |   0x10000000 |   0x10000000 |   0x10000000 |   0x10000000 |   0x10000000 |   0x10000000 |   0x10000000 |   0x10000000 |   0x10000000 |   0x10000000 |   0x10000000 |   0x10000000 |   0x10000000 |   0x10000000 |   0x10000000 |   0x10000000 |
ld_data_size                                  4096 |         4096 |         4096 |         4096 |         4096 |         4096 |         4096 |         4096 |         4096 |         4096 |         4096 |         4096 |         4096 |         4096 |         4096 |         4096 |         4096 |         4096 |         4096 |         4096 |
ld_stack_base                           0x7fffc000 |   0x7fffc000 |   0x7fffc000 |   0x7fffc000 |   0x7fffc000 |   0x7fffc000 |   0x7fffc000 |   0x7fffc000 |   0x7fffc000 |   0x7fffc000 |   0x7fffc000 |   0x7fffc000 |   0x7fffc000 |   0x7fffc000 |   0x7fffc000 |   0x7fffc000 |   0x7fffc000 |   0x7fffc000 |   0x7fffc000 |   0x7fffc000 |
ld_stack_size                                16384 |        16384 |        16384 |        16384 |        16384 |        16384 |        16384 |        16384 |        16384 |        16384 |        16384 |        16384 |        16384 |        16384 |        16384 |        16384 |        16384 |        16384 |        16384 |        16384 |
ld_prog_entry                           0x00400140 |   0x00400140 |   0x00400140 |   0x00400140 |   0x00400140 |   0x00400140 |   0x00400140 |   0x00400140 |   0x00400140 |   0x00400140 |   0x00400140 |   0x00400140 |   0x00400140 |   0x00400140 |   0x00400140 |   0x00400140 |   0x00400140 |   0x00400140 |   0x00400140 |   0x00400140 |
ld_environ_base                         0x7fff8000 |   0x7fff8000 |   0x7fff8000 |   0x7fff8000 |   0x7fff8000 |   0x7fff8000 |   0x7fff8000 |   0x7fff8000 |   0x7fff8000 |   0x7fff8000 |   0x7fff8000 |   0x7fff8000 |   0x7fff8000 |   0x7fff8000 |   0x7fff8000 |   0x7fff8000 |   0x7fff8000 |   0x7fff8000 |   0x7fff8000 |   0x7fff8000 |
ld_target_big_endian                             0 |            0 |            0 |            0 |            0 |            0 |            0 |            0 |            0 |            0 |            0 |            0 |            0 |            0 |            0 |            0 |            0 |            0 |            0 |            0 |
mem.page_count                                  17 |           17 |           17 |           17 |           21 |           21 |           21 |           21 |           29 |           29 |           29 |           29 |           45 |           45 |           45 |           45 |           77 |           77 |           77 |           77 |
mem.page_mem                                   68k |          68k |          68k |          68k |          84k |          84k |          84k |          84k |         116k |         116k |         116k |         116k |         180k |         180k |         180k |         180k |         308k |         308k |         308k |         308k |
mem.ptab_misses                                 17 |           17 |           17 |           17 |           21 |           21 |           21 |           21 |           29 |           29 |           29 |           29 |           45 |           45 |           45 |           45 |           77 |           77 |           77 |           77 |
mem.ptab_accesses                        144633284 |    144633284 |    144633284 |    144633284 |    578515014 |    578515014 |    578515014 |    578515014 |   2264290870 |   2264290870 |   2264290870 |   2264290870 |   9091314724 |   9091314724 |   9091314724 |   9091314724 |  36320178264 |  36320178264 |  36320178264 |  36320178264 |
mem.ptab_miss_rate                          0.0000 |       0.0000 |       0.0000 |       0.0000 |       0.0000 |       0.0000 |       0.0000 |       0.0000 |       0.0000 |       0.0000 |       0.0000 |       0.0000 |       0.0000 |       0.0000 |       0.0000 |       0.0000 |       0.0000 |       0.0000 |       0.0000 |       0.0000 |
-------------------------------------------------------------------------------------------------
sim-bpred                                     4096 |         4096 |         4096 |         4096 |         4096 |         4096 |         4096 |         8192 |         8192 |         8192 |         8192 |         8192 |         8192 |         8192 |        16384 |        16384 |        16384 |        16384 |        16384 |        16384 |        16384 |        32768 |        32768 |        32768 |        32768 |        32768 |        32768 |        32768 |        65536 |        65536 |        65536 |        65536 |        65536 |        65536 |        65536 |
-bpred bimod -bpred:bimod 512
-bpred bimod -bpred:bimod 1024
-bpred bimod -bpred:bimod 2048
-bpred 2lev -bpred:2lev 1 512 10 1
-bpred 2lev -bpred:2lev 1 1024 10 1
-bpred 2lev -bpred:2lev 1 2048 10 1
-bpred 2lev -bpred:2lev 1 4096 10 1
-------------------------------------------------------------------------------------------------
sim_num_insn                              29746553 |     29746553 |     29746553 |     29746553 |     29746553 |     29746553 |     29746553 |    119078633 |    119078633 |    119078633 |    119078633 |    119078633 |    119078633 |    119078633 |    466157167 |    466157167 |    466157167 |    466157167 |    466157167 |    466157167 |    466157167 |   1871734968 |   1871734968 |   1871734968 |   1871734968 |   1871734968 |   1871734968 |   1871734968 |   7477705675 |   7477705675 |   7477705675 |   7477705675 |   7477705675 |   7477705675 |   7477705675 |
sim_num_refs                              12740844 |     12740844 |     12740844 |     12740844 |     12740844 |     12740844 |     12740844 |     51017453 |     51017453 |     51017453 |     51017453 |     51017453 |     51017453 |     51017453 |    199748265 |    199748265 |    199748265 |    199748265 |    199748265 |    199748265 |    199748265 |    802104494 |    802104494 |    802104494 |    802104494 |    802104494 |    802104494 |    802104494 |   3204594850 |   3204594850 |   3204594850 |   3204594850 |   3204594850 |   3204594850 |   3204594850 |
sim_elapsed_time                                 4 |            3 |            4 |            3 |            4 |            3 |            4 |           14 |           13 |           14 |           14 |           14 |           14 |           14 |           54 |           53 |           54 |           54 |           54 |           55 |           55 |          215 |          215 |          216 |          218 |          217 |          220 |          218 |          893 |          861 |          865 |          872 |          874 |          898 |         1051 |
sim_inst_rate                         7436638.2500 | 9915517.6667 | 7436638.2500 | 9915517.6667 | 7436638.2500 | 9915517.6667 | 7436638.2500 | 8505616.6429 | 9159894.8462 | 8505616.6429 | 8505616.6429 | 8505616.6429 | 8505616.6429 | 8505616.6429 | 8632540.1296 | 8795418.2453 | 8632540.1296 | 8632540.1296 | 8632540.1296 | 8475584.8545 | 8475584.8545 | 8705744.0372 | 8705744.0372 | 8665439.6667 | 8585940.2202 | 8625506.7650 | 8507886.2182 | 8585940.2202 | 8373690.5655 | 8684907.8688 | 8644746.4451 | 8575350.5447 | 8555727.3169 | 8327066.4532 | 7114848.4063 |
sim_num_branches                           4259940 |      4259940 |      4259940 |      4259940 |      4259940 |      4259940 |      4259940 |     17031775 |     17031775 |     17031775 |     17031775 |     17031775 |     17031775 |     17031775 |     66634643 |     66634643 |     66634643 |     66634643 |     66634643 |     66634643 |     66634643 |    267471912 |    267471912 |    267471912 |    267471912 |    267471912 |    267471912 |    267471912 |   1068405752 |   1068405752 |   1068405752 |   1068405752 |   1068405752 |   1068405752 |   1068405752 |
sim_IPB                                     6.9829 |       6.9829 |       6.9829 |       6.9829 |       6.9829 |       6.9829 |       6.9829 |       6.9916 |       6.9916 |       6.9916 |       6.9916 |       6.9916 |       6.9916 |       6.9916 |       6.9957 |       6.9957 |       6.9957 |       6.9957 |       6.9957 |       6.9957 |       6.9957 |       6.9979 |       6.9979 |       6.9979 |       6.9979 |       6.9979 |       6.9979 |       6.9979 |       6.9989 |       6.9989 |       6.9989 |       6.9989 |       6.9989 |       6.9989 |       6.9989 |
bpred_bimod.lookups                        4259940 |      4259940 |      4259940 |xxxxxxxxxxxxx |xxxxxxxxxxxxx |xxxxxxxxxxxxx |xxxxxxxxxxxxx |     17031775 |     17031775 |     17031775 |xxxxxxxxxxxxx |xxxxxxxxxxxxx |xxxxxxxxxxxxx |xxxxxxxxxxxxx |     66634643 |     66634643 |     66634643 |xxxxxxxxxxxxx |xxxxxxxxxxxxx |xxxxxxxxxxxxx |xxxxxxxxxxxxx |    267471912 |    267471912 |    267471912 |xxxxxxxxxxxxx |xxxxxxxxxxxxx |xxxxxxxxxxxxx |xxxxxxxxxxxxx |   1068405752 |   1068405752 |   1068405752 |
bpred_bimod.updates                        4259940 |      4259940 |      4259940 |xxxxxxxxxxxxx |xxxxxxxxxxxxx |xxxxxxxxxxxxx |xxxxxxxxxxxxx |     17031775 |     17031775 |     17031775 |xxxxxxxxxxxxx |xxxxxxxxxxxxx |xxxxxxxxxxxxx |xxxxxxxxxxxxx |     66634643 |     66634643 |     66634643 |xxxxxxxxxxxxx |xxxxxxxxxxxxx |xxxxxxxxxxxxx |xxxxxxxxxxxxx |    267471912 |    267471912 |    267471912 |xxxxxxxxxxxxx |xxxxxxxxxxxxx |xxxxxxxxxxxxx |xxxxxxxxxxxxx |   1068405752 |   1068405752 |   1068405752 |
bpred_bimod.addr_hits                      4255344 |      4255346 |      4255347 |xxxxxxxxxxxxx |xxxxxxxxxxxxx |xxxxxxxxxxxxx |xxxxxxxxxxxxx |     17022815 |     17022817 |     17022819 |xxxxxxxxxxxxx |xxxxxxxxxxxxx |xxxxxxxxxxxxx |xxxxxxxxxxxxx |     66616962 |     66616964 |     66616966 |xxxxxxxxxxxxx |xxxxxxxxxxxxx |xxxxxxxxxxxxx |xxxxxxxxxxxxx |    267436789 |    267436791 |    267436792 |xxxxxxxxxxxxx |xxxxxxxxxxxxx |xxxxxxxxxxxxx |xxxxxxxxxxxxx |   1068335746 |   1068335748 |   1068335749 |
bpred_bimod.dir_hits                       4255451 |      4255454 |      4255453 |xxxxxxxxxxxxx |xxxxxxxxxxxxx |xxxxxxxxxxxxx |xxxxxxxxxxxxx |     17022921 |     17022924 |     17022925 |xxxxxxxxxxxxx |xxxxxxxxxxxxx |xxxxxxxxxxxxx |xxxxxxxxxxxxx |     66617070 |     66617073 |     66617073 |xxxxxxxxxxxxx |xxxxxxxxxxxxx |xxxxxxxxxxxxx |xxxxxxxxxxxxx |    267436897 |    267436900 |    267436899 |xxxxxxxxxxxxx |xxxxxxxxxxxxx |xxxxxxxxxxxxx |xxxxxxxxxxxxx |   1068335854 |   1068335857 |   1068335856 |
bpred_bimod.misses                            4489 |         4486 |         4487 |xxxxxxxxxxxxx |xxxxxxxxxxxxx |xxxxxxxxxxxxx |xxxxxxxxxxxxx |         8854 |         8851 |         8850 |xxxxxxxxxxxxx |xxxxxxxxxxxxx |xxxxxxxxxxxxx |xxxxxxxxxxxxx |        17573 |        17570 |        17570 |xxxxxxxxxxxxx |xxxxxxxxxxxxx |xxxxxxxxxxxxx |xxxxxxxxxxxxx |        35015 |        35012 |        35013 |xxxxxxxxxxxxx |xxxxxxxxxxxxx |xxxxxxxxxxxxx |xxxxxxxxxxxxx |        69898 |        69895 |        69896 |
bpred_bimod.jr_hits                           8553 |         8553 |         8553 |xxxxxxxxxxxxx |xxxxxxxxxxxxx |xxxxxxxxxxxxx |xxxxxxxxxxxxx |        16745 |        16745 |        16745 |xxxxxxxxxxxxx |xxxxxxxxxxxxx |xxxxxxxxxxxxx |xxxxxxxxxxxxx |        33129 |        33129 |        33129 |xxxxxxxxxxxxx |xxxxxxxxxxxxx |xxxxxxxxxxxxx |xxxxxxxxxxxxx |        65897 |        65897 |        65897 |xxxxxxxxxxxxx |xxxxxxxxxxxxx |xxxxxxxxxxxxx |xxxxxxxxxxxxx |       131433 |       131433 |       131433 |
bpred_bimod.jr_seen                           8554 |         8554 |         8554 |xxxxxxxxxxxxx |xxxxxxxxxxxxx |xxxxxxxxxxxxx |xxxxxxxxxxxxx |        16746 |        16746 |        16746 |xxxxxxxxxxxxx |xxxxxxxxxxxxx |xxxxxxxxxxxxx |xxxxxxxxxxxxx |        33130 |        33130 |        33130 |xxxxxxxxxxxxx |xxxxxxxxxxxxx |xxxxxxxxxxxxx |xxxxxxxxxxxxx |        65898 |        65898 |        65898 |xxxxxxxxxxxxx |xxxxxxxxxxxxx |xxxxxxxxxxxxx |xxxxxxxxxxxxx |       131434 |       131434 |       131434 |
bpred_bimod.jr_non_ras_hits.PP                   0 |            0 |            0 |xxxxxxxxxxxxx |xxxxxxxxxxxxx |xxxxxxxxxxxxx |xxxxxxxxxxxxx |            0 |            0 |            0 |xxxxxxxxxxxxx |xxxxxxxxxxxxx |xxxxxxxxxxxxx |xxxxxxxxxxxxx |            0 |            0 |            0 |xxxxxxxxxxxxx |xxxxxxxxxxxxx |xxxxxxxxxxxxx |xxxxxxxxxxxxx |            0 |            0 |            0 |xxxxxxxxxxxxx |xxxxxxxxxxxxx |xxxxxxxxxxxxx |xxxxxxxxxxxxx |            0 |            0 |            0 |
bpred_bimod.jr_non_ras_seen.PP                   0 |            0 |            0 |xxxxxxxxxxxxx |xxxxxxxxxxxxx |xxxxxxxxxxxxx |xxxxxxxxxxxxx |            0 |            0 |            0 |xxxxxxxxxxxxx |xxxxxxxxxxxxx |xxxxxxxxxxxxx |xxxxxxxxxxxxx |            0 |            0 |            0 |xxxxxxxxxxxxx |xxxxxxxxxxxxx |xxxxxxxxxxxxx |xxxxxxxxxxxxx |            0 |            0 |            0 |xxxxxxxxxxxxx |xxxxxxxxxxxxx |xxxxxxxxxxxxx |xxxxxxxxxxxxx |            0 |            0 |            0 |
bpred_bimod.bpred_addr_rate                 0.9989 |       0.9989 |       0.9989 |xxxxxxxxxxxxx |xxxxxxxxxxxxx |xxxxxxxxxxxxx |xxxxxxxxxxxxx |       0.9995 |       0.9995 |       0.9995 |xxxxxxxxxxxxx |xxxxxxxxxxxxx |xxxxxxxxxxxxx |xxxxxxxxxxxxx |       0.9997 |       0.9997 |       0.9997 |xxxxxxxxxxxxx |xxxxxxxxxxxxx |xxxxxxxxxxxxx |xxxxxxxxxxxxx |       0.9999 |       0.9999 |       0.9999 |xxxxxxxxxxxxx |xxxxxxxxxxxxx |xxxxxxxxxxxxx |xxxxxxxxxxxxx |       0.9999 |       0.9999 |       0.9999 |
bpred_bimod.bpred_dir_rate                  0.9989 |       0.9989 |       0.9989 |xxxxxxxxxxxxx |xxxxxxxxxxxxx |xxxxxxxxxxxxx |xxxxxxxxxxxxx |       0.9995 |       0.9995 |       0.9995 |xxxxxxxxxxxxx |xxxxxxxxxxxxx |xxxxxxxxxxxxx |xxxxxxxxxxxxx |       0.9997 |       0.9997 |       0.9997 |xxxxxxxxxxxxx |xxxxxxxxxxxxx |xxxxxxxxxxxxx |xxxxxxxxxxxxx |       0.9999 |       0.9999 |       0.9999 |xxxxxxxxxxxxx |xxxxxxxxxxxxx |xxxxxxxxxxxxx |xxxxxxxxxxxxx |       0.9999 |       0.9999 |       0.9999 |
bpred_bimod.bpred_jr_rate                   0.9999 |       0.9999 |       0.9999 |xxxxxxxxxxxxx |xxxxxxxxxxxxx |xxxxxxxxxxxxx |xxxxxxxxxxxxx |       0.9999 |       0.9999 |       0.9999 |xxxxxxxxxxxxx |xxxxxxxxxxxxx |xxxxxxxxxxxxx |xxxxxxxxxxxxx |       1.0000 |       1.0000 |       1.0000 |xxxxxxxxxxxxx |xxxxxxxxxxxxx |xxxxxxxxxxxxx |xxxxxxxxxxxxx |       1.0000 |       1.0000 |       1.0000 |xxxxxxxxxxxxx |xxxxxxxxxxxxx |xxxxxxxxxxxxx |xxxxxxxxxxxxx |       1.0000 |       1.0000 |       1.0000 |
bpred_bimod.bpred_jr_non_ras_rate.PP       <error: |      <error: |      <error: |xxxxxxxxxxxxx |xxxxxxxxxxxxx |xxxxxxxxxxxxx |xxxxxxxxxxxxx |      <error: |      <error: |      <error: |xxxxxxxxxxxxx |xxxxxxxxxxxxx |xxxxxxxxxxxxx |xxxxxxxxxxxxx |      <error: |      <error: |      <error: |xxxxxxxxxxxxx |xxxxxxxxxxxxx |xxxxxxxxxxxxx |xxxxxxxxxxxxx |      <error: |      <error: |      <error: |xxxxxxxxxxxxx |xxxxxxxxxxxxx |xxxxxxxxxxxxx |xxxxxxxxxxxxx |      <error: |      <error: |      <error: |
bpred_bimod.retstack_pushes                   8556 |         8556 |         8556 |xxxxxxxxxxxxx |xxxxxxxxxxxxx |xxxxxxxxxxxxx |xxxxxxxxxxxxx |        16748 |        16748 |        16748 |xxxxxxxxxxxxx |xxxxxxxxxxxxx |xxxxxxxxxxxxx |xxxxxxxxxxxxx |        33132 |        33132 |        33132 |xxxxxxxxxxxxx |xxxxxxxxxxxxx |xxxxxxxxxxxxx |xxxxxxxxxxxxx |        65900 |        65900 |        65900 |xxxxxxxxxxxxx |xxxxxxxxxxxxx |xxxxxxxxxxxxx |xxxxxxxxxxxxx |       131436 |       131436 |       131436 |
bpred_bimod.retstack_pops                     8554 |         8554 |         8554 |xxxxxxxxxxxxx |xxxxxxxxxxxxx |xxxxxxxxxxxxx |xxxxxxxxxxxxx |        16746 |        16746 |        16746 |xxxxxxxxxxxxx |xxxxxxxxxxxxx |xxxxxxxxxxxxx |xxxxxxxxxxxxx |        33130 |        33130 |        33130 |xxxxxxxxxxxxx |xxxxxxxxxxxxx |xxxxxxxxxxxxx |xxxxxxxxxxxxx |        65898 |        65898 |        65898 |xxxxxxxxxxxxx |xxxxxxxxxxxxx |xxxxxxxxxxxxx |xxxxxxxxxxxxx |       131434 |       131434 |       131434 |
bpred_bimod.used_ras.PP                       8554 |         8554 |         8554 |xxxxxxxxxxxxx |xxxxxxxxxxxxx |xxxxxxxxxxxxx |xxxxxxxxxxxxx |        16746 |        16746 |        16746 |xxxxxxxxxxxxx |xxxxxxxxxxxxx |xxxxxxxxxxxxx |xxxxxxxxxxxxx |        33130 |        33130 |        33130 |xxxxxxxxxxxxx |xxxxxxxxxxxxx |xxxxxxxxxxxxx |xxxxxxxxxxxxx |        65898 |        65898 |        65898 |xxxxxxxxxxxxx |xxxxxxxxxxxxx |xxxxxxxxxxxxx |xxxxxxxxxxxxx |       131434 |       131434 |       131434 |
bpred_bimod.ras_hits.PP                       8553 |         8553 |         8553 |xxxxxxxxxxxxx |xxxxxxxxxxxxx |xxxxxxxxxxxxx |xxxxxxxxxxxxx |        16745 |        16745 |        16745 |xxxxxxxxxxxxx |xxxxxxxxxxxxx |xxxxxxxxxxxxx |xxxxxxxxxxxxx |        33129 |        33129 |        33129 |xxxxxxxxxxxxx |xxxxxxxxxxxxx |xxxxxxxxxxxxx |xxxxxxxxxxxxx |        65897 |        65897 |        65897 |xxxxxxxxxxxxx |xxxxxxxxxxxxx |xxxxxxxxxxxxx |xxxxxxxxxxxxx |       131433 |       131433 |       131433 |
bpred_bimod.ras_rate.PP                     0.9999 |       0.9999 |       0.9999 |xxxxxxxxxxxxx |xxxxxxxxxxxxx |xxxxxxxxxxxxx |xxxxxxxxxxxxx |       0.9999 |       0.9999 |       0.9999 |xxxxxxxxxxxxx |xxxxxxxxxxxxx |xxxxxxxxxxxxx |xxxxxxxxxxxxx |       1.0000 |       1.0000 |       1.0000 |xxxxxxxxxxxxx |xxxxxxxxxxxxx |xxxxxxxxxxxxx |xxxxxxxxxxxxx |       1.0000 |       1.0000 |       1.0000 |xxxxxxxxxxxxx |xxxxxxxxxxxxx |xxxxxxxxxxxxx |xxxxxxxxxxxxx |       1.0000 |       1.0000 |       1.0000 |
bpred_2lev.lookups                   xxxxxxxxxxxxx |xxxxxxxxxxxxx |xxxxxxxxxxxxx |      4259940 |      4259940 |      4259940 |      4259940 |xxxxxxxxxxxxx |xxxxxxxxxxxxx |xxxxxxxxxxxxx |     17031775 |     17031775 |     17031775 |     17031775 |xxxxxxxxxxxxx |xxxxxxxxxxxxx |xxxxxxxxxxxxx |     66634643 |     66634643 |     66634643 |     66634643 |xxxxxxxxxxxxx |xxxxxxxxxxxxx |xxxxxxxxxxxxx |    267471912 |    267471912 |    267471912 |    267471912 |xxxxxxxxxxxxx |xxxxxxxxxxxxx |xxxxxxxxxxxxx |   1068405752 |   1068405752 |   1068405752 |   1068405752 |
bpred_2lev.updates                   xxxxxxxxxxxxx |xxxxxxxxxxxxx |xxxxxxxxxxxxx |      4259940 |      4259940 |      4259940 |      4259940 |xxxxxxxxxxxxx |xxxxxxxxxxxxx |xxxxxxxxxxxxx |     17031775 |     17031775 |     17031775 |     17031775 |xxxxxxxxxxxxx |xxxxxxxxxxxxx |xxxxxxxxxxxxx |     66634643 |     66634643 |     66634643 |     66634643 |xxxxxxxxxxxxx |xxxxxxxxxxxxx |xxxxxxxxxxxxx |    267471912 |    267471912 |    267471912 |    267471912 |xxxxxxxxxxxxx |xxxxxxxxxxxxx |xxxxxxxxxxxxx |   1068405752 |   1068405752 |   1068405752 |   1068405752 |
bpred_2lev.addr_hits                 xxxxxxxxxxxxx |xxxxxxxxxxxxx |xxxxxxxxxxxxx |      4253159 |      4253129 |      4255176 |      4255169 |xxxxxxxxxxxxx |xxxxxxxxxxxxx |xxxxxxxxxxxxx |     17018257 |     17018544 |     17022629 |     17022623 |xxxxxxxxxxxxx |xxxxxxxxxxxxx |xxxxxxxxxxxxx |     66605205 |     66607801 |     66616737 |     66616733 |xxxxxxxxxxxxx |xxxxxxxxxxxxx |xxxxxxxxxxxxx |    267413042 |    267413922 |    267436499 |    267436492 |xxxxxxxxxxxxx |xxxxxxxxxxxxx |xxxxxxxxxxxxx |   1068295616 |   1068292588 |   1068335324 |   1068335317 |
bpred_2lev.dir_hits                  xxxxxxxxxxxxx |xxxxxxxxxxxxx |xxxxxxxxxxxxx |      4253274 |      4253239 |      4255284 |      4255275 |xxxxxxxxxxxxx |xxxxxxxxxxxxx |xxxxxxxxxxxxx |     17018374 |     17018656 |     17022738 |     17022729 |xxxxxxxxxxxxx |xxxxxxxxxxxxx |xxxxxxxxxxxxx |     66605318 |     66607911 |     66616843 |     66616838 |xxxxxxxxxxxxx |xxxxxxxxxxxxx |xxxxxxxxxxxxx |    267413155 |    267414030 |    267436604 |    267436596 |xxxxxxxxxxxxx |xxxxxxxxxxxxx |xxxxxxxxxxxxx |   1068295729 |   1068292696 |   1068335429 |   1068335421 |
bpred_2lev.misses                    xxxxxxxxxxxxx |xxxxxxxxxxxxx |xxxxxxxxxxxxx |         6666 |         6701 |         4656 |         4665 |xxxxxxxxxxxxx |xxxxxxxxxxxxx |xxxxxxxxxxxxx |        13401 |        13119 |         9037 |         9046 |xxxxxxxxxxxxx |xxxxxxxxxxxxx |xxxxxxxxxxxxx |        29325 |        26732 |        17800 |        17805 |xxxxxxxxxxxxx |xxxxxxxxxxxxx |xxxxxxxxxxxxx |        58757 |        57882 |        35308 |        35316 |xxxxxxxxxxxxx |xxxxxxxxxxxxx |xxxxxxxxxxxxx |       110023 |       113056 |        70323 |        70331 |
bpred_2lev.jr_hits                   xxxxxxxxxxxxx |xxxxxxxxxxxxx |xxxxxxxxxxxxx |         8553 |         8553 |         8553 |         8553 |xxxxxxxxxxxxx |xxxxxxxxxxxxx |xxxxxxxxxxxxx |        16745 |        16745 |        16745 |        16745 |xxxxxxxxxxxxx |xxxxxxxxxxxxx |xxxxxxxxxxxxx |        33129 |        33129 |        33129 |        33129 |xxxxxxxxxxxxx |xxxxxxxxxxxxx |xxxxxxxxxxxxx |        65897 |        65897 |        65897 |        65897 |xxxxxxxxxxxxx |xxxxxxxxxxxxx |xxxxxxxxxxxxx |       131433 |       131433 |       131433 |       131433 |
bpred_2lev.jr_seen                   xxxxxxxxxxxxx |xxxxxxxxxxxxx |xxxxxxxxxxxxx |         8554 |         8554 |         8554 |         8554 |xxxxxxxxxxxxx |xxxxxxxxxxxxx |xxxxxxxxxxxxx |        16746 |        16746 |        16746 |        16746 |xxxxxxxxxxxxx |xxxxxxxxxxxxx |xxxxxxxxxxxxx |        33130 |        33130 |        33130 |        33130 |xxxxxxxxxxxxx |xxxxxxxxxxxxx |xxxxxxxxxxxxx |        65898 |        65898 |        65898 |        65898 |xxxxxxxxxxxxx |xxxxxxxxxxxxx |xxxxxxxxxxxxx |       131434 |       131434 |       131434 |       131434 |
bpred_2lev.jr_non_ras_hits.PP        xxxxxxxxxxxxx |xxxxxxxxxxxxx |xxxxxxxxxxxxx |            0 |            0 |            0 |            0 |xxxxxxxxxxxxx |xxxxxxxxxxxxx |xxxxxxxxxxxxx |            0 |            0 |            0 |            0 |xxxxxxxxxxxxx |xxxxxxxxxxxxx |xxxxxxxxxxxxx |            0 |            0 |            0 |            0 |xxxxxxxxxxxxx |xxxxxxxxxxxxx |xxxxxxxxxxxxx |            0 |            0 |            0 |            0 |xxxxxxxxxxxxx |xxxxxxxxxxxxx |xxxxxxxxxxxxx |            0 |            0 |            0 |            0 |
bpred_2lev.jr_non_ras_seen.PP        xxxxxxxxxxxxx |xxxxxxxxxxxxx |xxxxxxxxxxxxx |            0 |            0 |            0 |            0 |xxxxxxxxxxxxx |xxxxxxxxxxxxx |xxxxxxxxxxxxx |            0 |            0 |            0 |            0 |xxxxxxxxxxxxx |xxxxxxxxxxxxx |xxxxxxxxxxxxx |            0 |            0 |            0 |            0 |xxxxxxxxxxxxx |xxxxxxxxxxxxx |xxxxxxxxxxxxx |            0 |            0 |            0 |            0 |xxxxxxxxxxxxx |xxxxxxxxxxxxx |xxxxxxxxxxxxx |            0 |            0 |            0 |            0 |
bpred_2lev.bpred_addr_rate           xxxxxxxxxxxxx |xxxxxxxxxxxxx |xxxxxxxxxxxxx |       0.9984 |       0.9984 |       0.9989 |       0.9989 |xxxxxxxxxxxxx |xxxxxxxxxxxxx |xxxxxxxxxxxxx |       0.9992 |       0.9992 |       0.9995 |       0.9995 |xxxxxxxxxxxxx |xxxxxxxxxxxxx |xxxxxxxxxxxxx |       0.9996 |       0.9996 |       0.9997 |       0.9997 |xxxxxxxxxxxxx |xxxxxxxxxxxxx |xxxxxxxxxxxxx |       0.9998 |       0.9998 |       0.9999 |       0.9999 |xxxxxxxxxxxxx |xxxxxxxxxxxxx |xxxxxxxxxxxxx |       0.9999 |       0.9999 |       0.9999 |       0.9999 |
bpred_2lev.bpred_dir_rate            xxxxxxxxxxxxx |xxxxxxxxxxxxx |xxxxxxxxxxxxx |       0.9984 |       0.9984 |       0.9989 |       0.9989 |xxxxxxxxxxxxx |xxxxxxxxxxxxx |xxxxxxxxxxxxx |       0.9992 |       0.9992 |       0.9995 |       0.9995 |xxxxxxxxxxxxx |xxxxxxxxxxxxx |xxxxxxxxxxxxx |       0.9996 |       0.9996 |       0.9997 |       0.9997 |xxxxxxxxxxxxx |xxxxxxxxxxxxx |xxxxxxxxxxxxx |       0.9998 |       0.9998 |       0.9999 |       0.9999 |xxxxxxxxxxxxx |xxxxxxxxxxxxx |xxxxxxxxxxxxx |       0.9999 |       0.9999 |       0.9999 |       0.9999 |
bpred_2lev.bpred_jr_rate             xxxxxxxxxxxxx |xxxxxxxxxxxxx |xxxxxxxxxxxxx |       0.9999 |       0.9999 |       0.9999 |       0.9999 |xxxxxxxxxxxxx |xxxxxxxxxxxxx |xxxxxxxxxxxxx |       0.9999 |       0.9999 |       0.9999 |       0.9999 |xxxxxxxxxxxxx |xxxxxxxxxxxxx |xxxxxxxxxxxxx |       1.0000 |       1.0000 |       1.0000 |       1.0000 |xxxxxxxxxxxxx |xxxxxxxxxxxxx |xxxxxxxxxxxxx |       1.0000 |       1.0000 |       1.0000 |       1.0000 |xxxxxxxxxxxxx |xxxxxxxxxxxxx |xxxxxxxxxxxxx |       1.0000 |       1.0000 |       1.0000 |       1.0000 |
bpred_2lev.bpred_jr_non_ras_rate.PP  xxxxxxxxxxxxx |xxxxxxxxxxxxx |xxxxxxxxxxxxx |      <error: |      <error: |      <error: |      <error: |xxxxxxxxxxxxx |xxxxxxxxxxxxx |xxxxxxxxxxxxx |      <error: |      <error: |      <error: |      <error: |xxxxxxxxxxxxx |xxxxxxxxxxxxx |xxxxxxxxxxxxx |      <error: |      <error: |      <error: |      <error: |xxxxxxxxxxxxx |xxxxxxxxxxxxx |xxxxxxxxxxxxx |      <error: |      <error: |      <error: |      <error: |xxxxxxxxxxxxx |xxxxxxxxxxxxx |xxxxxxxxxxxxx |      <error: |      <error: |      <error: |      <error: |
bpred_2lev.retstack_pushes           xxxxxxxxxxxxx |xxxxxxxxxxxxx |xxxxxxxxxxxxx |         8556 |         8556 |         8556 |         8556 |xxxxxxxxxxxxx |xxxxxxxxxxxxx |xxxxxxxxxxxxx |        16748 |        16748 |        16748 |        16748 |xxxxxxxxxxxxx |xxxxxxxxxxxxx |xxxxxxxxxxxxx |        33132 |        33132 |        33132 |        33132 |xxxxxxxxxxxxx |xxxxxxxxxxxxx |xxxxxxxxxxxxx |        65900 |        65900 |        65900 |        65900 |xxxxxxxxxxxxx |xxxxxxxxxxxxx |xxxxxxxxxxxxx |       131436 |       131436 |       131436 |       131436 |
bpred_2lev.retstack_pops             xxxxxxxxxxxxx |xxxxxxxxxxxxx |xxxxxxxxxxxxx |         8554 |         8554 |         8554 |         8554 |xxxxxxxxxxxxx |xxxxxxxxxxxxx |xxxxxxxxxxxxx |        16746 |        16746 |        16746 |        16746 |xxxxxxxxxxxxx |xxxxxxxxxxxxx |xxxxxxxxxxxxx |        33130 |        33130 |        33130 |        33130 |xxxxxxxxxxxxx |xxxxxxxxxxxxx |xxxxxxxxxxxxx |        65898 |        65898 |        65898 |        65898 |xxxxxxxxxxxxx |xxxxxxxxxxxxx |xxxxxxxxxxxxx |       131434 |       131434 |       131434 |       131434 |
bpred_2lev.used_ras.PP               xxxxxxxxxxxxx |xxxxxxxxxxxxx |xxxxxxxxxxxxx |         8554 |         8554 |         8554 |         8554 |xxxxxxxxxxxxx |xxxxxxxxxxxxx |xxxxxxxxxxxxx |        16746 |        16746 |        16746 |        16746 |xxxxxxxxxxxxx |xxxxxxxxxxxxx |xxxxxxxxxxxxx |        33130 |        33130 |        33130 |        33130 |xxxxxxxxxxxxx |xxxxxxxxxxxxx |xxxxxxxxxxxxx |        65898 |        65898 |        65898 |        65898 |xxxxxxxxxxxxx |xxxxxxxxxxxxx |xxxxxxxxxxxxx |       131434 |       131434 |       131434 |       131434 |
bpred_2lev.ras_hits.PP               xxxxxxxxxxxxx |xxxxxxxxxxxxx |xxxxxxxxxxxxx |         8553 |         8553 |         8553 |         8553 |xxxxxxxxxxxxx |xxxxxxxxxxxxx |xxxxxxxxxxxxx |        16745 |        16745 |        16745 |        16745 |xxxxxxxxxxxxx |xxxxxxxxxxxxx |xxxxxxxxxxxxx |        33129 |        33129 |        33129 |        33129 |xxxxxxxxxxxxx |xxxxxxxxxxxxx |xxxxxxxxxxxxx |        65897 |        65897 |        65897 |        65897 |xxxxxxxxxxxxx |xxxxxxxxxxxxx |xxxxxxxxxxxxx |       131433 |       131433 |       131433 |       131433 |
bpred_2lev.ras_rate.PP               xxxxxxxxxxxxx |xxxxxxxxxxxxx |xxxxxxxxxxxxx |       0.9999 |       0.9999 |       0.9999 |       0.9999 |xxxxxxxxxxxxx |xxxxxxxxxxxxx |xxxxxxxxxxxxx |       0.9999 |       0.9999 |       0.9999 |       0.9999 |xxxxxxxxxxxxx |xxxxxxxxxxxxx |xxxxxxxxxxxxx |       1.0000 |       1.0000 |       1.0000 |       1.0000 |xxxxxxxxxxxxx |xxxxxxxxxxxxx |xxxxxxxxxxxxx |       1.0000 |       1.0000 |       1.0000 |       1.0000 |xxxxxxxxxxxxx |xxxxxxxxxxxxx |xxxxxxxxxxxxx |       1.0000 |       1.0000 |       1.0000 |       1.0000 |

Command list: 
	sslittle-na-sstrix-gcc -Wall -O3 -funroll-loops -finline-functions  -DRANDOM_SIZE=4096 -DSEED=0 -DSORT=on2_insertsort on2_insertsort1095252329.c simpleMain.c -o on2_insertsort401093023
	sim-cache -cache:dl1 dl1:256:32:1:l -cache:dl2 dl2:131072:32:1:l -cache:il1 il1:256:32:1:l -cache:il2 dl2 on2_insertsort401093023
	sim-cache -cache:dl1 dl1:256:32:1:l -cache:dl2 dl2:65536:32:1:l -cache:il1 il1:256:32:1:l -cache:il2 dl2 on2_insertsort401093023
	sim-cache -cache:dl1 dl1:1:32:256:l -cache:dl2 dl2:1:32:131072:l -cache:il1 il1:1:32:256:l -cache:il2 dl2 on2_insertsort401093023
	sim-cache -cache:dl1 dl1:1:32:256:l -cache:dl2 dl2:1:32:65536:l -cache:il1 il1:1:32:256:l -cache:il2 dl2 on2_insertsort401093023
	sim-bpred -bpred bimod -bpred:bimod 512 on2_insertsort401093023
	sim-bpred -bpred bimod -bpred:bimod 1024 on2_insertsort401093023
	sim-bpred -bpred bimod -bpred:bimod 2048 on2_insertsort401093023
	sim-bpred -bpred 2lev -bpred:2lev 1 512 10 1 on2_insertsort401093023
	sim-bpred -bpred 2lev -bpred:2lev 1 1024 10 1 on2_insertsort401093023
	sim-bpred -bpred 2lev -bpred:2lev 1 2048 10 1 on2_insertsort401093023
	sim-bpred -bpred 2lev -bpred:2lev 1 4096 10 1 on2_insertsort401093023
	sslittle-na-sstrix-gcc -Wall -O3 -funroll-loops -finline-functions  -DRANDOM_SIZE=8192 -DSEED=0 -DSORT=on2_insertsort on2_insertsort1095252329.c simpleMain.c -o on2_insertsort401093023
	sim-cache -cache:dl1 dl1:256:32:1:l -cache:dl2 dl2:131072:32:1:l -cache:il1 il1:256:32:1:l -cache:il2 dl2 on2_insertsort401093023
	sim-cache -cache:dl1 dl1:256:32:1:l -cache:dl2 dl2:65536:32:1:l -cache:il1 il1:256:32:1:l -cache:il2 dl2 on2_insertsort401093023
	sim-cache -cache:dl1 dl1:1:32:256:l -cache:dl2 dl2:1:32:131072:l -cache:il1 il1:1:32:256:l -cache:il2 dl2 on2_insertsort401093023
	sim-cache -cache:dl1 dl1:1:32:256:l -cache:dl2 dl2:1:32:65536:l -cache:il1 il1:1:32:256:l -cache:il2 dl2 on2_insertsort401093023
	sim-bpred -bpred bimod -bpred:bimod 512 on2_insertsort401093023
	sim-bpred -bpred bimod -bpred:bimod 1024 on2_insertsort401093023
	sim-bpred -bpred bimod -bpred:bimod 2048 on2_insertsort401093023
	sim-bpred -bpred 2lev -bpred:2lev 1 512 10 1 on2_insertsort401093023
	sim-bpred -bpred 2lev -bpred:2lev 1 1024 10 1 on2_insertsort401093023
	sim-bpred -bpred 2lev -bpred:2lev 1 2048 10 1 on2_insertsort401093023
	sim-bpred -bpred 2lev -bpred:2lev 1 4096 10 1 on2_insertsort401093023
	sslittle-na-sstrix-gcc -Wall -O3 -funroll-loops -finline-functions  -DRANDOM_SIZE=16384 -DSEED=0 -DSORT=on2_insertsort on2_insertsort1095252329.c simpleMain.c -o on2_insertsort401093023
	sim-cache -cache:dl1 dl1:256:32:1:l -cache:dl2 dl2:131072:32:1:l -cache:il1 il1:256:32:1:l -cache:il2 dl2 on2_insertsort401093023
	sim-cache -cache:dl1 dl1:256:32:1:l -cache:dl2 dl2:65536:32:1:l -cache:il1 il1:256:32:1:l -cache:il2 dl2 on2_insertsort401093023
	sim-cache -cache:dl1 dl1:1:32:256:l -cache:dl2 dl2:1:32:131072:l -cache:il1 il1:1:32:256:l -cache:il2 dl2 on2_insertsort401093023
	sim-cache -cache:dl1 dl1:1:32:256:l -cache:dl2 dl2:1:32:65536:l -cache:il1 il1:1:32:256:l -cache:il2 dl2 on2_insertsort401093023
	sim-bpred -bpred bimod -bpred:bimod 512 on2_insertsort401093023
	sim-bpred -bpred bimod -bpred:bimod 1024 on2_insertsort401093023
	sim-bpred -bpred bimod -bpred:bimod 2048 on2_insertsort401093023
	sim-bpred -bpred 2lev -bpred:2lev 1 512 10 1 on2_insertsort401093023
	sim-bpred -bpred 2lev -bpred:2lev 1 1024 10 1 on2_insertsort401093023
	sim-bpred -bpred 2lev -bpred:2lev 1 2048 10 1 on2_insertsort401093023
	sim-bpred -bpred 2lev -bpred:2lev 1 4096 10 1 on2_insertsort401093023
	sslittle-na-sstrix-gcc -Wall -O3 -funroll-loops -finline-functions  -DRANDOM_SIZE=32768 -DSEED=0 -DSORT=on2_insertsort on2_insertsort1095252329.c simpleMain.c -o on2_insertsort401093023
	sim-cache -cache:dl1 dl1:256:32:1:l -cache:dl2 dl2:131072:32:1:l -cache:il1 il1:256:32:1:l -cache:il2 dl2 on2_insertsort401093023
	sim-cache -cache:dl1 dl1:256:32:1:l -cache:dl2 dl2:65536:32:1:l -cache:il1 il1:256:32:1:l -cache:il2 dl2 on2_insertsort401093023
	sim-cache -cache:dl1 dl1:1:32:256:l -cache:dl2 dl2:1:32:131072:l -cache:il1 il1:1:32:256:l -cache:il2 dl2 on2_insertsort401093023
	sim-cache -cache:dl1 dl1:1:32:256:l -cache:dl2 dl2:1:32:65536:l -cache:il1 il1:1:32:256:l -cache:il2 dl2 on2_insertsort401093023
	sim-bpred -bpred bimod -bpred:bimod 512 on2_insertsort401093023
	sim-bpred -bpred bimod -bpred:bimod 1024 on2_insertsort401093023
	sim-bpred -bpred bimod -bpred:bimod 2048 on2_insertsort401093023
	sim-bpred -bpred 2lev -bpred:2lev 1 512 10 1 on2_insertsort401093023
	sim-bpred -bpred 2lev -bpred:2lev 1 1024 10 1 on2_insertsort401093023
	sim-bpred -bpred 2lev -bpred:2lev 1 2048 10 1 on2_insertsort401093023
	sim-bpred -bpred 2lev -bpred:2lev 1 4096 10 1 on2_insertsort401093023
	sslittle-na-sstrix-gcc -Wall -O3 -funroll-loops -finline-functions  -DRANDOM_SIZE=65536 -DSEED=0 -DSORT=on2_insertsort on2_insertsort1095252329.c simpleMain.c -o on2_insertsort401093023
	sim-cache -cache:dl1 dl1:256:32:1:l -cache:dl2 dl2:131072:32:1:l -cache:il1 il1:256:32:1:l -cache:il2 dl2 on2_insertsort401093023
	sim-cache -cache:dl1 dl1:256:32:1:l -cache:dl2 dl2:65536:32:1:l -cache:il1 il1:256:32:1:l -cache:il2 dl2 on2_insertsort401093023
	sim-cache -cache:dl1 dl1:1:32:256:l -cache:dl2 dl2:1:32:131072:l -cache:il1 il1:1:32:256:l -cache:il2 dl2 on2_insertsort401093023
	sim-cache -cache:dl1 dl1:1:32:256:l -cache:dl2 dl2:1:32:65536:l -cache:il1 il1:1:32:256:l -cache:il2 dl2 on2_insertsort401093023
	sim-bpred -bpred bimod -bpred:bimod 512 on2_insertsort401093023
	sim-bpred -bpred bimod -bpred:bimod 1024 on2_insertsort401093023
	sim-bpred -bpred bimod -bpred:bimod 2048 on2_insertsort401093023
	sim-bpred -bpred 2lev -bpred:2lev 1 512 10 1 on2_insertsort401093023
	sim-bpred -bpred 2lev -bpred:2lev 1 1024 10 1 on2_insertsort401093023
	sim-bpred -bpred 2lev -bpred:2lev 1 2048 10 1 on2_insertsort401093023
	sim-bpred -bpred 2lev -bpred:2lev 1 4096 10 1 on2_insertsort401093023
