Wed Mar 24 22:14:44 2004
Run as: "./simple -c  -M 65536 on2_selectsort"
-------------------------------------------------------------------------------------------------
sim-cache                                     4096 |         4096 |         4096 |         4096 |         8192 |         8192 |         8192 |         8192 |        16384 |        16384 |        16384 |        16384 |        32768 |        32768 |        32768 |        32768 |        65536 |        65536 |        65536 |        65536 |
-cache:dl1 dl1:256:32:1:l -cache:dl2 dl2:131072:32:1:l -cache:il1 il1:256:32:1:l -cache:il2 dl2
-cache:dl1 dl1:256:32:1:l -cache:dl2 dl2:65536:32:1:l -cache:il1 il1:256:32:1:l -cache:il2 dl2
-cache:dl1 dl1:1:32:256:l -cache:dl2 dl2:1:32:131072:l -cache:il1 il1:1:32:256:l -cache:il2 dl2
-cache:dl1 dl1:1:32:256:l -cache:dl2 dl2:1:32:65536:l -cache:il1 il1:1:32:256:l -cache:il2 dl2
-------------------------------------------------------------------------------------------------
sim_num_insn                              65269080 |     65269080 |     65269080 |     65269080 |    260552936 |    260552936 |    260552936 |    260552936 |   1041191696 |   1041191696 |   1041191696 |   1041191696 |   4162765938 |   4162765938 |   4162765938 |   4162765938 |  16647066409 |  16647066409 |  16647066409 |  16647066409 |
sim_num_refs                              16859250 |     16859250 |     16859250 |     16859250 |     67265154 |     67265154 |     67265154 |     67265154 |    268740258 |    268740258 |    268740258 |    268740258 |   1074343656 |   1074343656 |   1074343656 |   1074343656 |   4296163180 |   4296163180 |   4296163180 |   4296163180 |
sim_elapsed_time                                34 |           34 |           48 |           41 |          136 |          136 |          159 |          150 |          547 |          542 |          596 |          578 |         2159 |         2169 |         2304 |         2280 |         8652 |         8697 |         9081 |         9251 |
sim_inst_rate                         1919678.8235 | 1919678.8235 | 1359772.5000 | 1591928.7805 | 1915830.4118 | 1915830.4118 | 1638697.7107 | 1737019.5733 | 1903458.3108 | 1921017.8893 | 1746965.9329 | 1801369.7163 | 1928099.0912 | 1919209.7455 | 1806756.0495 | 1825774.5342 | 1924071.4758 | 1914115.9491 | 1833175.4662 | 1799488.3157 |
il1.accesses                              65269080 |     65269080 |     65269080 |     65269080 |    260552936 |    260552936 |    260552936 |    260552936 |   1041191696 |   1041191696 |   1041191696 |   1041191696 |   4162765938 |   4162765938 |   4162765938 |   4162765938 |  16647066409 |  16647066409 |  16647066409 |  16647066409 |
il1.hits                                  65268692 |     65268692 |     65268751 |     65268751 |    260552547 |    260552547 |    260552606 |    260552606 |   1041191304 |   1041191304 |   1041191370 |   1041191370 |   4162765545 |   4162765545 |   4162765611 |   4162765611 |  16647066016 |  16647066016 |  16647066082 |  16647066082 |
il1.misses                                     388 |          388 |          329 |          329 |          389 |          389 |          330 |          330 |          392 |          392 |          326 |          326 |          393 |          393 |          327 |          327 |          393 |          393 |          327 |          327 |
il1.replacements                               200 |          200 |           73 |           73 |          201 |          201 |           74 |           74 |          207 |          207 |           70 |           70 |          208 |          208 |           71 |           71 |          208 |          208 |           71 |           71 |
il1.writebacks                                   0 |            0 |            0 |            0 |            0 |            0 |            0 |            0 |            0 |            0 |            0 |            0 |            0 |            0 |            0 |            0 |            0 |            0 |            0 |            0 |
il1.invalidations                                0 |            0 |            0 |            0 |            0 |            0 |            0 |            0 |            0 |            0 |            0 |            0 |            0 |            0 |            0 |            0 |            0 |            0 |            0 |            0 |
il1.miss_rate                               0.0000 |       0.0000 |       0.0000 |       0.0000 |       0.0000 |       0.0000 |       0.0000 |       0.0000 |       0.0000 |       0.0000 |       0.0000 |       0.0000 |       0.0000 |       0.0000 |       0.0000 |       0.0000 |       0.0000 |       0.0000 |       0.0000 |       0.0000 |
il1.repl_rate                               0.0000 |       0.0000 |       0.0000 |       0.0000 |       0.0000 |       0.0000 |       0.0000 |       0.0000 |       0.0000 |       0.0000 |       0.0000 |       0.0000 |       0.0000 |       0.0000 |       0.0000 |       0.0000 |       0.0000 |       0.0000 |       0.0000 |       0.0000 |
il1.wb_rate                                 0.0000 |       0.0000 |       0.0000 |       0.0000 |       0.0000 |       0.0000 |       0.0000 |       0.0000 |       0.0000 |       0.0000 |       0.0000 |       0.0000 |       0.0000 |       0.0000 |       0.0000 |       0.0000 |       0.0000 |       0.0000 |       0.0000 |       0.0000 |
il1.inv_rate                                0.0000 |       0.0000 |       0.0000 |       0.0000 |       0.0000 |       0.0000 |       0.0000 |       0.0000 |       0.0000 |       0.0000 |       0.0000 |       0.0000 |       0.0000 |       0.0000 |       0.0000 |       0.0000 |       0.0000 |       0.0000 |       0.0000 |       0.0000 |
dl1.accesses                              16859320 |     16859320 |     16859320 |     16859320 |     67265224 |     67265224 |     67265224 |     67265224 |    268740328 |    268740328 |    268740328 |    268740328 |   1074343726 |   1074343726 |   1074343726 |   1074343726 |   4296163250 |   4296163250 |   4296163250 |   4296163250 |
dl1.hits                                  16319665 |     16319665 |     16072176 |     16072176 |     63484346 |     63484346 |     63330019 |     63330019 |    251852468 |    251852468 |    252215646 |    252215646 |   1004674918 |   1004674918 |   1007472512 |   1007472512 |   4014565537 |   4014565537 |   4027934150 |   4027934150 |
dl1.misses                                  539655 |       539655 |       787144 |       787144 |      3780878 |      3780878 |      3935205 |      3935205 |     16887860 |     16887860 |     16524682 |     16524682 |     69668808 |     69668808 |     66871214 |     66871214 |    281597713 |    281597713 |    268229100 |    268229100 |
dl1.replacements                            539399 |       539399 |       786888 |       786888 |      3780622 |      3780622 |      3934949 |      3934949 |     16887604 |     16887604 |     16524426 |     16524426 |     69668552 |     69668552 |     66870958 |     66870958 |    281597457 |    281597457 |    268228844 |    268228844 |
dl1.writebacks                                4303 |         4303 |         5003 |         5003 |        13149 |        13149 |        13698 |        13698 |        30896 |        30896 |        31097 |        31097 |        66018 |        66018 |        65918 |        65918 |       136460 |       136460 |       135536 |       135536 |
dl1.invalidations                                0 |            0 |            0 |            0 |            0 |            0 |            0 |            0 |            0 |            0 |            0 |            0 |            0 |            0 |            0 |            0 |            0 |            0 |            0 |            0 |
dl1.miss_rate                               0.0320 |       0.0320 |       0.0467 |       0.0467 |       0.0562 |       0.0562 |       0.0585 |       0.0585 |       0.0628 |       0.0628 |       0.0615 |       0.0615 |       0.0648 |       0.0648 |       0.0622 |       0.0622 |       0.0655 |       0.0655 |       0.0624 |       0.0624 |
dl1.repl_rate                               0.0320 |       0.0320 |       0.0467 |       0.0467 |       0.0562 |       0.0562 |       0.0585 |       0.0585 |       0.0628 |       0.0628 |       0.0615 |       0.0615 |       0.0648 |       0.0648 |       0.0622 |       0.0622 |       0.0655 |       0.0655 |       0.0624 |       0.0624 |
dl1.wb_rate                                 0.0003 |       0.0003 |       0.0003 |       0.0003 |       0.0002 |       0.0002 |       0.0002 |       0.0002 |       0.0001 |       0.0001 |       0.0001 |       0.0001 |       0.0001 |       0.0001 |       0.0001 |       0.0001 |       0.0000 |       0.0000 |       0.0000 |       0.0000 |
dl1.inv_rate                                0.0000 |       0.0000 |       0.0000 |       0.0000 |       0.0000 |       0.0000 |       0.0000 |       0.0000 |       0.0000 |       0.0000 |       0.0000 |       0.0000 |       0.0000 |       0.0000 |       0.0000 |       0.0000 |       0.0000 |       0.0000 |       0.0000 |       0.0000 |
dl2.accesses                                544346 |       544346 |       792476 |       792476 |      3794416 |      3794416 |      3949233 |      3949233 |     16919148 |     16919148 |     16556105 |     16556105 |     69735219 |     69735219 |     66937459 |     66937459 |    281734566 |    281734566 |    268364963 |    268364963 |
dl2.hits                                    543055 |       543055 |       791220 |       791220 |      3792611 |      3792611 |      3947464 |      3947464 |     16916321 |     16916321 |     16553315 |     16553315 |     69730345 |     69730345 |     66932620 |     66932620 |    281725596 |    281725596 |    268356028 |    268356028 |
dl2.misses                                    1291 |         1291 |         1256 |         1256 |         1805 |         1805 |         1769 |         1769 |         2827 |         2827 |         2790 |         2790 |         4874 |         4874 |         4839 |         4839 |         8970 |         8970 |         8935 |         8935 |
dl2.replacements                               210 |          210 |            0 |            0 |          211 |          211 |            0 |            0 |          215 |          215 |            0 |            0 |          213 |          213 |            0 |            0 |          213 |          213 |            0 |            0 |
dl2.writebacks                                  31 |           31 |            0 |            0 |           30 |           30 |            0 |            0 |           27 |           27 |            0 |            0 |           28 |           28 |            0 |            0 |           28 |           28 |            0 |            0 |
dl2.invalidations                                0 |            0 |            0 |            0 |            0 |            0 |            0 |            0 |            0 |            0 |            0 |            0 |            0 |            0 |            0 |            0 |            0 |            0 |            0 |            0 |
dl2.miss_rate                               0.0024 |       0.0024 |       0.0016 |       0.0016 |       0.0005 |       0.0005 |       0.0004 |       0.0004 |       0.0002 |       0.0002 |       0.0002 |       0.0002 |       0.0001 |       0.0001 |       0.0001 |       0.0001 |       0.0000 |       0.0000 |       0.0000 |       0.0000 |
dl2.repl_rate                               0.0004 |       0.0004 |       0.0000 |       0.0000 |       0.0001 |       0.0001 |       0.0000 |       0.0000 |       0.0000 |       0.0000 |       0.0000 |       0.0000 |       0.0000 |       0.0000 |       0.0000 |       0.0000 |       0.0000 |       0.0000 |       0.0000 |       0.0000 |
dl2.wb_rate                                 0.0001 |       0.0001 |       0.0000 |       0.0000 |       0.0000 |       0.0000 |       0.0000 |       0.0000 |       0.0000 |       0.0000 |       0.0000 |       0.0000 |       0.0000 |       0.0000 |       0.0000 |       0.0000 |       0.0000 |       0.0000 |       0.0000 |       0.0000 |
dl2.inv_rate                                0.0000 |       0.0000 |       0.0000 |       0.0000 |       0.0000 |       0.0000 |       0.0000 |       0.0000 |       0.0000 |       0.0000 |       0.0000 |       0.0000 |       0.0000 |       0.0000 |       0.0000 |       0.0000 |       0.0000 |       0.0000 |       0.0000 |       0.0000 |
itlb.accesses                             65269080 |     65269080 |     65269080 |     65269080 |    260552936 |    260552936 |    260552936 |    260552936 |   1041191696 |   1041191696 |   1041191696 |   1041191696 |   4162765938 |   4162765938 |   4162765938 |   4162765938 |  16647066409 |  16647066409 |  16647066409 |  16647066409 |
itlb.hits                                 65269073 |     65269073 |     65269073 |     65269073 |    260552929 |    260552929 |    260552929 |    260552929 |   1041191689 |   1041191689 |   1041191689 |   1041191689 |   4162765931 |   4162765931 |   4162765931 |   4162765931 |  16647066402 |  16647066402 |  16647066402 |  16647066402 |
itlb.misses                                      7 |            7 |            7 |            7 |            7 |            7 |            7 |            7 |            7 |            7 |            7 |            7 |            7 |            7 |            7 |            7 |            7 |            7 |            7 |            7 |
itlb.replacements                                0 |            0 |            0 |            0 |            0 |            0 |            0 |            0 |            0 |            0 |            0 |            0 |            0 |            0 |            0 |            0 |            0 |            0 |            0 |            0 |
itlb.writebacks                                  0 |            0 |            0 |            0 |            0 |            0 |            0 |            0 |            0 |            0 |            0 |            0 |            0 |            0 |            0 |            0 |            0 |            0 |            0 |            0 |
itlb.invalidations                               0 |            0 |            0 |            0 |            0 |            0 |            0 |            0 |            0 |            0 |            0 |            0 |            0 |            0 |            0 |            0 |            0 |            0 |            0 |            0 |
itlb.miss_rate                              0.0000 |       0.0000 |       0.0000 |       0.0000 |       0.0000 |       0.0000 |       0.0000 |       0.0000 |       0.0000 |       0.0000 |       0.0000 |       0.0000 |       0.0000 |       0.0000 |       0.0000 |       0.0000 |       0.0000 |       0.0000 |       0.0000 |       0.0000 |
itlb.repl_rate                              0.0000 |       0.0000 |       0.0000 |       0.0000 |       0.0000 |       0.0000 |       0.0000 |       0.0000 |       0.0000 |       0.0000 |       0.0000 |       0.0000 |       0.0000 |       0.0000 |       0.0000 |       0.0000 |       0.0000 |       0.0000 |       0.0000 |       0.0000 |
itlb.wb_rate                                0.0000 |       0.0000 |       0.0000 |       0.0000 |       0.0000 |       0.0000 |       0.0000 |       0.0000 |       0.0000 |       0.0000 |       0.0000 |       0.0000 |       0.0000 |       0.0000 |       0.0000 |       0.0000 |       0.0000 |       0.0000 |       0.0000 |       0.0000 |
itlb.inv_rate                               0.0000 |       0.0000 |       0.0000 |       0.0000 |       0.0000 |       0.0000 |       0.0000 |       0.0000 |       0.0000 |       0.0000 |       0.0000 |       0.0000 |       0.0000 |       0.0000 |       0.0000 |       0.0000 |       0.0000 |       0.0000 |       0.0000 |       0.0000 |
dtlb.accesses                             16859320 |     16859320 |     16859320 |     16859320 |     67265224 |     67265224 |     67265224 |     67265224 |    268740328 |    268740328 |    268740328 |    268740328 |   1074343726 |   1074343726 |   1074343726 |   1074343726 |   4296163250 |   4296163250 |   4296163250 |   4296163250 |
dtlb.hits                                 16859310 |     16859310 |     16859310 |     16859310 |     67265210 |     67265210 |     67265210 |     67265210 |    268740306 |    268740306 |    268740306 |    268740306 |   1074343688 |   1074343688 |   1074343688 |   1074343688 |   4296163180 |   4296163180 |   4296163180 |   4296163180 |
dtlb.misses                                     10 |           10 |           10 |           10 |           14 |           14 |           14 |           14 |           22 |           22 |           22 |           22 |           38 |           38 |           38 |           38 |           70 |           70 |           70 |           70 |
dtlb.replacements                                0 |            0 |            0 |            0 |            0 |            0 |            0 |            0 |            0 |            0 |            0 |            0 |            0 |            0 |            0 |            0 |            0 |            0 |            0 |            0 |
dtlb.writebacks                                  0 |            0 |            0 |            0 |            0 |            0 |            0 |            0 |            0 |            0 |            0 |            0 |            0 |            0 |            0 |            0 |            0 |            0 |            0 |            0 |
dtlb.invalidations                               0 |            0 |            0 |            0 |            0 |            0 |            0 |            0 |            0 |            0 |            0 |            0 |            0 |            0 |            0 |            0 |            0 |            0 |            0 |            0 |
dtlb.miss_rate                              0.0000 |       0.0000 |       0.0000 |       0.0000 |       0.0000 |       0.0000 |       0.0000 |       0.0000 |       0.0000 |       0.0000 |       0.0000 |       0.0000 |       0.0000 |       0.0000 |       0.0000 |       0.0000 |       0.0000 |       0.0000 |       0.0000 |       0.0000 |
dtlb.repl_rate                              0.0000 |       0.0000 |       0.0000 |       0.0000 |       0.0000 |       0.0000 |       0.0000 |       0.0000 |       0.0000 |       0.0000 |       0.0000 |       0.0000 |       0.0000 |       0.0000 |       0.0000 |       0.0000 |       0.0000 |       0.0000 |       0.0000 |       0.0000 |
dtlb.wb_rate                                0.0000 |       0.0000 |       0.0000 |       0.0000 |       0.0000 |       0.0000 |       0.0000 |       0.0000 |       0.0000 |       0.0000 |       0.0000 |       0.0000 |       0.0000 |       0.0000 |       0.0000 |       0.0000 |       0.0000 |       0.0000 |       0.0000 |       0.0000 |
dtlb.inv_rate                               0.0000 |       0.0000 |       0.0000 |       0.0000 |       0.0000 |       0.0000 |       0.0000 |       0.0000 |       0.0000 |       0.0000 |       0.0000 |       0.0000 |       0.0000 |       0.0000 |       0.0000 |       0.0000 |       0.0000 |       0.0000 |       0.0000 |       0.0000 |
ld_text_base                            0x00400000 |   0x00400000 |   0x00400000 |   0x00400000 |   0x00400000 |   0x00400000 |   0x00400000 |   0x00400000 |   0x00400000 |   0x00400000 |   0x00400000 |   0x00400000 |   0x00400000 |   0x00400000 |   0x00400000 |   0x00400000 |   0x00400000 |   0x00400000 |   0x00400000 |   0x00400000 |
ld_text_size                                 26272 |        26272 |        26272 |        26272 |        26304 |        26304 |        26304 |        26304 |        26320 |        26320 |        26320 |        26320 |        26352 |        26352 |        26352 |        26352 |        26352 |        26352 |        26352 |        26352 |
ld_data_base                            0x10000000 |   0x10000000 |   0x10000000 |   0x10000000 |   0x10000000 |   0x10000000 |   0x10000000 |   0x10000000 |   0x10000000 |   0x10000000 |   0x10000000 |   0x10000000 |   0x10000000 |   0x10000000 |   0x10000000 |   0x10000000 |   0x10000000 |   0x10000000 |   0x10000000 |   0x10000000 |
ld_data_size                                  4096 |         4096 |         4096 |         4096 |         4096 |         4096 |         4096 |         4096 |         4096 |         4096 |         4096 |         4096 |         4096 |         4096 |         4096 |         4096 |         4096 |         4096 |         4096 |         4096 |
ld_stack_base                           0x7fffc000 |   0x7fffc000 |   0x7fffc000 |   0x7fffc000 |   0x7fffc000 |   0x7fffc000 |   0x7fffc000 |   0x7fffc000 |   0x7fffc000 |   0x7fffc000 |   0x7fffc000 |   0x7fffc000 |   0x7fffc000 |   0x7fffc000 |   0x7fffc000 |   0x7fffc000 |   0x7fffc000 |   0x7fffc000 |   0x7fffc000 |   0x7fffc000 |
ld_stack_size                                16384 |        16384 |        16384 |        16384 |        16384 |        16384 |        16384 |        16384 |        16384 |        16384 |        16384 |        16384 |        16384 |        16384 |        16384 |        16384 |        16384 |        16384 |        16384 |        16384 |
ld_prog_entry                           0x00400140 |   0x00400140 |   0x00400140 |   0x00400140 |   0x00400140 |   0x00400140 |   0x00400140 |   0x00400140 |   0x00400140 |   0x00400140 |   0x00400140 |   0x00400140 |   0x00400140 |   0x00400140 |   0x00400140 |   0x00400140 |   0x00400140 |   0x00400140 |   0x00400140 |   0x00400140 |
ld_environ_base                         0x7fff8000 |   0x7fff8000 |   0x7fff8000 |   0x7fff8000 |   0x7fff8000 |   0x7fff8000 |   0x7fff8000 |   0x7fff8000 |   0x7fff8000 |   0x7fff8000 |   0x7fff8000 |   0x7fff8000 |   0x7fff8000 |   0x7fff8000 |   0x7fff8000 |   0x7fff8000 |   0x7fff8000 |   0x7fff8000 |   0x7fff8000 |   0x7fff8000 |
ld_target_big_endian                             0 |            0 |            0 |            0 |            0 |            0 |            0 |            0 |            0 |            0 |            0 |            0 |            0 |            0 |            0 |            0 |            0 |            0 |            0 |            0 |
mem.page_count                                  17 |           17 |           17 |           17 |           21 |           21 |           21 |           21 |           29 |           29 |           29 |           29 |           45 |           45 |           45 |           45 |           77 |           77 |           77 |           77 |
mem.page_mem                                   68k |          68k |          68k |          68k |          84k |          84k |          84k |          84k |         116k |         116k |         116k |         116k |         180k |         180k |         180k |         180k |         308k |         308k |         308k |         308k |
mem.ptab_misses                                 17 |           17 |           17 |           17 |           21 |           21 |           21 |           21 |           29 |           29 |           29 |           29 |           45 |           45 |           45 |           45 |           77 |           77 |           77 |           77 |
mem.ptab_accesses                        294957806 |    294957806 |    294957806 |    294957806 |   1176905230 |   1176905230 |   1176905230 |   1176905230 |   4702410574 |   4702410574 |   4702410574 |   4702410574 |  18799914530 |  18799914530 |  18799914530 |  18799914530 |  75180755462 |  75180755462 |  75180755462 |  75180755462 |
mem.ptab_miss_rate                          0.0000 |       0.0000 |       0.0000 |       0.0000 |       0.0000 |       0.0000 |       0.0000 |       0.0000 |       0.0000 |       0.0000 |       0.0000 |       0.0000 |       0.0000 |       0.0000 |       0.0000 |       0.0000 |       0.0000 |       0.0000 |       0.0000 |       0.0000 |
-------------------------------------------------------------------------------------------------
sim-bpred                                     4096 |         4096 |         4096 |         4096 |         4096 |         4096 |         4096 |         8192 |         8192 |         8192 |         8192 |         8192 |         8192 |         8192 |        16384 |        16384 |        16384 |        16384 |        16384 |        16384 |        16384 |        32768 |        32768 |        32768 |        32768 |        32768 |        32768 |        32768 |        65536 |        65536 |        65536 |        65536 |        65536 |        65536 |        65536 |
-bpred bimod -bpred:bimod 512
-bpred bimod -bpred:bimod 1024
-bpred bimod -bpred:bimod 2048
-bpred 2lev -bpred:2lev 1 512 10 1
-bpred 2lev -bpred:2lev 1 1024 10 1
-bpred 2lev -bpred:2lev 1 2048 10 1
-bpred 2lev -bpred:2lev 1 4096 10 1
-------------------------------------------------------------------------------------------------
sim_num_insn                              65269080 |     65269080 |     65269080 |     65269080 |     65269080 |     65269080 |     65269080 |    260552936 |    260552936 |    260552936 |    260552936 |    260552936 |    260552936 |    260552936 |   1041191696 |   1041191696 |   1041191696 |   1041191696 |   1041191696 |   1041191696 |   1041191696 |   4162765938 |   4162765938 |   4162765938 |   4162765938 |   4162765938 |   4162765938 |   4162765938 |  16647066409 |  16647066409 |  16647066409 |  16647066409 |  16647066409 |  16647066409 |  16647066409 |
sim_num_refs                              16859250 |     16859250 |     16859250 |     16859250 |     16859250 |     16859250 |     16859250 |     67265154 |     67265154 |     67265154 |     67265154 |     67265154 |     67265154 |     67265154 |    268740258 |    268740258 |    268740258 |    268740258 |    268740258 |    268740258 |    268740258 |   1074343656 |   1074343656 |   1074343656 |   1074343656 |   1074343656 |   1074343656 |   1074343656 |   4296163180 |   4296163180 |   4296163180 |   4296163180 |   4296163180 |   4296163180 |   4296163180 |
sim_elapsed_time                                15 |           14 |           15 |           16 |           15 |           15 |           16 |           60 |           59 |           59 |           61 |           61 |           61 |           61 |          239 |          234 |          236 |          248 |          246 |          242 |          243 |          949 |          935 |          939 |          984 |          975 |          969 |          974 |         3868 |         3817 |         4267 |         4027 |         4853 |         4044 |         4076 |
sim_inst_rate                         4351272.0000 | 4662077.1429 | 4351272.0000 | 4079317.5000 | 4351272.0000 | 4351272.0000 | 4079317.5000 | 4342548.9333 | 4416151.4576 | 4416151.4576 | 4271359.6066 | 4271359.6066 | 4271359.6066 | 4271359.6066 | 4356450.6109 | 4449537.1624 | 4411829.2203 | 4198353.6129 | 4232486.5691 | 4302445.0248 | 4284739.4897 | 4386476.2255 | 4452156.0834 | 4433190.5623 | 4230453.1890 | 4269503.5262 | 4295940.0805 | 4273887.0000 | 4303791.7293 | 4361295.8892 | 3901351.3965 | 4133863.0268 | 3430263.0144 | 4116485.2643 | 4084167.4212 |
sim_num_branches                          10533939 |     10533939 |     10533939 |     10533939 |     10533939 |     10533939 |     10533939 |     42036787 |     42036787 |     42036787 |     42036787 |     42036787 |     42036787 |     42036787 |    167957043 |    167957043 |    167957043 |    167957043 |    167957043 |    167957043 |    167957043 |    671455795 |    671455795 |    671455795 |    671455795 |    671455795 |    671455795 |    671455795 |   2685086259 |   2685086259 |   2685086259 |   2685086259 |   2685086259 |   2685086259 |   2685086259 |
sim_IPB                                     6.1961 |       6.1961 |       6.1961 |       6.1961 |       6.1961 |       6.1961 |       6.1961 |       6.1982 |       6.1982 |       6.1982 |       6.1982 |       6.1982 |       6.1982 |       6.1982 |       6.1992 |       6.1992 |       6.1992 |       6.1992 |       6.1992 |       6.1992 |       6.1992 |       6.1996 |       6.1996 |       6.1996 |       6.1996 |       6.1996 |       6.1996 |       6.1996 |       6.1998 |       6.1998 |       6.1998 |       6.1998 |       6.1998 |       6.1998 |       6.1998 |
bpred_bimod.lookups                       10533939 |     10533939 |     10533939 |xxxxxxxxxxxxx |xxxxxxxxxxxxx |xxxxxxxxxxxxx |xxxxxxxxxxxxx |     42036787 |     42036787 |     42036787 |xxxxxxxxxxxxx |xxxxxxxxxxxxx |xxxxxxxxxxxxx |xxxxxxxxxxxxx |    167957043 |    167957043 |    167957043 |xxxxxxxxxxxxx |xxxxxxxxxxxxx |xxxxxxxxxxxxx |xxxxxxxxxxxxx |    671455795 |    671455795 |    671455795 |xxxxxxxxxxxxx |xxxxxxxxxxxxx |xxxxxxxxxxxxx |xxxxxxxxxxxxx |   2685086259 |   2685086259 |   2685086259 |
bpred_bimod.updates                       10533939 |     10533939 |     10533939 |xxxxxxxxxxxxx |xxxxxxxxxxxxx |xxxxxxxxxxxxx |xxxxxxxxxxxxx |     42036787 |     42036787 |     42036787 |xxxxxxxxxxxxx |xxxxxxxxxxxxx |xxxxxxxxxxxxx |xxxxxxxxxxxxx |    167957043 |    167957043 |    167957043 |xxxxxxxxxxxxx |xxxxxxxxxxxxx |xxxxxxxxxxxxx |xxxxxxxxxxxxx |    671455795 |    671455795 |    671455795 |xxxxxxxxxxxxx |xxxxxxxxxxxxx |xxxxxxxxxxxxx |xxxxxxxxxxxxx |   2685086259 |   2685086259 |   2685086259 |
bpred_bimod.addr_hits                     10496445 |     10496447 |     10496448 |xxxxxxxxxxxxx |xxxxxxxxxxxxx |xxxxxxxxxxxxx |xxxxxxxxxxxxx |     41954608 |     41954610 |     41954610 |xxxxxxxxxxxxx |xxxxxxxxxxxxx |xxxxxxxxxxxxx |xxxxxxxxxxxxx |    167785071 |    167785073 |    167785074 |xxxxxxxxxxxxx |xxxxxxxxxxxxx |xxxxxxxxxxxxx |xxxxxxxxxxxxx |    671087979 |    671087981 |    671087981 |xxxxxxxxxxxxx |xxxxxxxxxxxxx |xxxxxxxxxxxxx |xxxxxxxxxxxxx |   2684298323 |   2684298325 |   2684298325 |
bpred_bimod.dir_hits                      10496550 |     10496553 |     10496551 |xxxxxxxxxxxxx |xxxxxxxxxxxxx |xxxxxxxxxxxxx |xxxxxxxxxxxxx |     41954712 |     41954715 |     41954713 |xxxxxxxxxxxxx |xxxxxxxxxxxxx |xxxxxxxxxxxxx |xxxxxxxxxxxxx |    167785176 |    167785179 |    167785178 |xxxxxxxxxxxxx |xxxxxxxxxxxxx |xxxxxxxxxxxxx |xxxxxxxxxxxxx |    671088084 |    671088087 |    671088085 |xxxxxxxxxxxxx |xxxxxxxxxxxxx |xxxxxxxxxxxxx |xxxxxxxxxxxxx |   2684298429 |   2684298432 |   2684298430 |
bpred_bimod.misses                           37389 |        37386 |        37388 |xxxxxxxxxxxxx |xxxxxxxxxxxxx |xxxxxxxxxxxxx |xxxxxxxxxxxxx |        82075 |        82072 |        82074 |xxxxxxxxxxxxx |xxxxxxxxxxxxx |xxxxxxxxxxxxx |xxxxxxxxxxxxx |       171867 |       171864 |       171865 |xxxxxxxxxxxxx |xxxxxxxxxxxxx |xxxxxxxxxxxxx |xxxxxxxxxxxxx |       367711 |       367708 |       367710 |xxxxxxxxxxxxx |xxxxxxxxxxxxx |xxxxxxxxxxxxx |xxxxxxxxxxxxx |       787830 |       787827 |       787829 |
bpred_bimod.jr_hits                           8553 |         8553 |         8553 |xxxxxxxxxxxxx |xxxxxxxxxxxxx |xxxxxxxxxxxxx |xxxxxxxxxxxxx |        16745 |        16745 |        16745 |xxxxxxxxxxxxx |xxxxxxxxxxxxx |xxxxxxxxxxxxx |xxxxxxxxxxxxx |        33129 |        33129 |        33129 |xxxxxxxxxxxxx |xxxxxxxxxxxxx |xxxxxxxxxxxxx |xxxxxxxxxxxxx |        65897 |        65897 |        65897 |xxxxxxxxxxxxx |xxxxxxxxxxxxx |xxxxxxxxxxxxx |xxxxxxxxxxxxx |       131433 |       131433 |       131433 |
bpred_bimod.jr_seen                           8554 |         8554 |         8554 |xxxxxxxxxxxxx |xxxxxxxxxxxxx |xxxxxxxxxxxxx |xxxxxxxxxxxxx |        16746 |        16746 |        16746 |xxxxxxxxxxxxx |xxxxxxxxxxxxx |xxxxxxxxxxxxx |xxxxxxxxxxxxx |        33130 |        33130 |        33130 |xxxxxxxxxxxxx |xxxxxxxxxxxxx |xxxxxxxxxxxxx |xxxxxxxxxxxxx |        65898 |        65898 |        65898 |xxxxxxxxxxxxx |xxxxxxxxxxxxx |xxxxxxxxxxxxx |xxxxxxxxxxxxx |       131434 |       131434 |       131434 |
bpred_bimod.jr_non_ras_hits.PP                   0 |            0 |            0 |xxxxxxxxxxxxx |xxxxxxxxxxxxx |xxxxxxxxxxxxx |xxxxxxxxxxxxx |            0 |            0 |            0 |xxxxxxxxxxxxx |xxxxxxxxxxxxx |xxxxxxxxxxxxx |xxxxxxxxxxxxx |            0 |            0 |            0 |xxxxxxxxxxxxx |xxxxxxxxxxxxx |xxxxxxxxxxxxx |xxxxxxxxxxxxx |            0 |            0 |            0 |xxxxxxxxxxxxx |xxxxxxxxxxxxx |xxxxxxxxxxxxx |xxxxxxxxxxxxx |            0 |            0 |            0 |
bpred_bimod.jr_non_ras_seen.PP                   0 |            0 |            0 |xxxxxxxxxxxxx |xxxxxxxxxxxxx |xxxxxxxxxxxxx |xxxxxxxxxxxxx |            0 |            0 |            0 |xxxxxxxxxxxxx |xxxxxxxxxxxxx |xxxxxxxxxxxxx |xxxxxxxxxxxxx |            0 |            0 |            0 |xxxxxxxxxxxxx |xxxxxxxxxxxxx |xxxxxxxxxxxxx |xxxxxxxxxxxxx |            0 |            0 |            0 |xxxxxxxxxxxxx |xxxxxxxxxxxxx |xxxxxxxxxxxxx |xxxxxxxxxxxxx |            0 |            0 |            0 |
bpred_bimod.bpred_addr_rate                 0.9964 |       0.9964 |       0.9964 |xxxxxxxxxxxxx |xxxxxxxxxxxxx |xxxxxxxxxxxxx |xxxxxxxxxxxxx |       0.9980 |       0.9980 |       0.9980 |xxxxxxxxxxxxx |xxxxxxxxxxxxx |xxxxxxxxxxxxx |xxxxxxxxxxxxx |       0.9990 |       0.9990 |       0.9990 |xxxxxxxxxxxxx |xxxxxxxxxxxxx |xxxxxxxxxxxxx |xxxxxxxxxxxxx |       0.9995 |       0.9995 |       0.9995 |xxxxxxxxxxxxx |xxxxxxxxxxxxx |xxxxxxxxxxxxx |xxxxxxxxxxxxx |       0.9997 |       0.9997 |       0.9997 |
bpred_bimod.bpred_dir_rate                  0.9965 |       0.9965 |       0.9965 |xxxxxxxxxxxxx |xxxxxxxxxxxxx |xxxxxxxxxxxxx |xxxxxxxxxxxxx |       0.9980 |       0.9980 |       0.9980 |xxxxxxxxxxxxx |xxxxxxxxxxxxx |xxxxxxxxxxxxx |xxxxxxxxxxxxx |       0.9990 |       0.9990 |       0.9990 |xxxxxxxxxxxxx |xxxxxxxxxxxxx |xxxxxxxxxxxxx |xxxxxxxxxxxxx |       0.9995 |       0.9995 |       0.9995 |xxxxxxxxxxxxx |xxxxxxxxxxxxx |xxxxxxxxxxxxx |xxxxxxxxxxxxx |       0.9997 |       0.9997 |       0.9997 |
bpred_bimod.bpred_jr_rate                   0.9999 |       0.9999 |       0.9999 |xxxxxxxxxxxxx |xxxxxxxxxxxxx |xxxxxxxxxxxxx |xxxxxxxxxxxxx |       0.9999 |       0.9999 |       0.9999 |xxxxxxxxxxxxx |xxxxxxxxxxxxx |xxxxxxxxxxxxx |xxxxxxxxxxxxx |       1.0000 |       1.0000 |       1.0000 |xxxxxxxxxxxxx |xxxxxxxxxxxxx |xxxxxxxxxxxxx |xxxxxxxxxxxxx |       1.0000 |       1.0000 |       1.0000 |xxxxxxxxxxxxx |xxxxxxxxxxxxx |xxxxxxxxxxxxx |xxxxxxxxxxxxx |       1.0000 |       1.0000 |       1.0000 |
bpred_bimod.bpred_jr_non_ras_rate.PP       <error: |      <error: |      <error: |xxxxxxxxxxxxx |xxxxxxxxxxxxx |xxxxxxxxxxxxx |xxxxxxxxxxxxx |      <error: |      <error: |      <error: |xxxxxxxxxxxxx |xxxxxxxxxxxxx |xxxxxxxxxxxxx |xxxxxxxxxxxxx |      <error: |      <error: |      <error: |xxxxxxxxxxxxx |xxxxxxxxxxxxx |xxxxxxxxxxxxx |xxxxxxxxxxxxx |      <error: |      <error: |      <error: |xxxxxxxxxxxxx |xxxxxxxxxxxxx |xxxxxxxxxxxxx |xxxxxxxxxxxxx |      <error: |      <error: |      <error: |
bpred_bimod.retstack_pushes                   8556 |         8556 |         8556 |xxxxxxxxxxxxx |xxxxxxxxxxxxx |xxxxxxxxxxxxx |xxxxxxxxxxxxx |        16748 |        16748 |        16748 |xxxxxxxxxxxxx |xxxxxxxxxxxxx |xxxxxxxxxxxxx |xxxxxxxxxxxxx |        33132 |        33132 |        33132 |xxxxxxxxxxxxx |xxxxxxxxxxxxx |xxxxxxxxxxxxx |xxxxxxxxxxxxx |        65900 |        65900 |        65900 |xxxxxxxxxxxxx |xxxxxxxxxxxxx |xxxxxxxxxxxxx |xxxxxxxxxxxxx |       131436 |       131436 |       131436 |
bpred_bimod.retstack_pops                     8554 |         8554 |         8554 |xxxxxxxxxxxxx |xxxxxxxxxxxxx |xxxxxxxxxxxxx |xxxxxxxxxxxxx |        16746 |        16746 |        16746 |xxxxxxxxxxxxx |xxxxxxxxxxxxx |xxxxxxxxxxxxx |xxxxxxxxxxxxx |        33130 |        33130 |        33130 |xxxxxxxxxxxxx |xxxxxxxxxxxxx |xxxxxxxxxxxxx |xxxxxxxxxxxxx |        65898 |        65898 |        65898 |xxxxxxxxxxxxx |xxxxxxxxxxxxx |xxxxxxxxxxxxx |xxxxxxxxxxxxx |       131434 |       131434 |       131434 |
bpred_bimod.used_ras.PP                       8554 |         8554 |         8554 |xxxxxxxxxxxxx |xxxxxxxxxxxxx |xxxxxxxxxxxxx |xxxxxxxxxxxxx |        16746 |        16746 |        16746 |xxxxxxxxxxxxx |xxxxxxxxxxxxx |xxxxxxxxxxxxx |xxxxxxxxxxxxx |        33130 |        33130 |        33130 |xxxxxxxxxxxxx |xxxxxxxxxxxxx |xxxxxxxxxxxxx |xxxxxxxxxxxxx |        65898 |        65898 |        65898 |xxxxxxxxxxxxx |xxxxxxxxxxxxx |xxxxxxxxxxxxx |xxxxxxxxxxxxx |       131434 |       131434 |       131434 |
bpred_bimod.ras_hits.PP                       8553 |         8553 |         8553 |xxxxxxxxxxxxx |xxxxxxxxxxxxx |xxxxxxxxxxxxx |xxxxxxxxxxxxx |        16745 |        16745 |        16745 |xxxxxxxxxxxxx |xxxxxxxxxxxxx |xxxxxxxxxxxxx |xxxxxxxxxxxxx |        33129 |        33129 |        33129 |xxxxxxxxxxxxx |xxxxxxxxxxxxx |xxxxxxxxxxxxx |xxxxxxxxxxxxx |        65897 |        65897 |        65897 |xxxxxxxxxxxxx |xxxxxxxxxxxxx |xxxxxxxxxxxxx |xxxxxxxxxxxxx |       131433 |       131433 |       131433 |
bpred_bimod.ras_rate.PP                     0.9999 |       0.9999 |       0.9999 |xxxxxxxxxxxxx |xxxxxxxxxxxxx |xxxxxxxxxxxxx |xxxxxxxxxxxxx |       0.9999 |       0.9999 |       0.9999 |xxxxxxxxxxxxx |xxxxxxxxxxxxx |xxxxxxxxxxxxx |xxxxxxxxxxxxx |       1.0000 |       1.0000 |       1.0000 |xxxxxxxxxxxxx |xxxxxxxxxxxxx |xxxxxxxxxxxxx |xxxxxxxxxxxxx |       1.0000 |       1.0000 |       1.0000 |xxxxxxxxxxxxx |xxxxxxxxxxxxx |xxxxxxxxxxxxx |xxxxxxxxxxxxx |       1.0000 |       1.0000 |       1.0000 |
bpred_2lev.lookups                   xxxxxxxxxxxxx |xxxxxxxxxxxxx |xxxxxxxxxxxxx |     10533939 |     10533939 |     10533939 |     10533939 |xxxxxxxxxxxxx |xxxxxxxxxxxxx |xxxxxxxxxxxxx |     42036787 |     42036787 |     42036787 |     42036787 |xxxxxxxxxxxxx |xxxxxxxxxxxxx |xxxxxxxxxxxxx |    167957043 |    167957043 |    167957043 |    167957043 |xxxxxxxxxxxxx |xxxxxxxxxxxxx |xxxxxxxxxxxxx |    671455795 |    671455795 |    671455795 |    671455795 |xxxxxxxxxxxxx |xxxxxxxxxxxxx |xxxxxxxxxxxxx |   2685086259 |   2685086259 |   2685086259 |   2685086259 |
bpred_2lev.updates                   xxxxxxxxxxxxx |xxxxxxxxxxxxx |xxxxxxxxxxxxx |     10533939 |     10533939 |     10533939 |     10533939 |xxxxxxxxxxxxx |xxxxxxxxxxxxx |xxxxxxxxxxxxx |     42036787 |     42036787 |     42036787 |     42036787 |xxxxxxxxxxxxx |xxxxxxxxxxxxx |xxxxxxxxxxxxx |    167957043 |    167957043 |    167957043 |    167957043 |xxxxxxxxxxxxx |xxxxxxxxxxxxx |xxxxxxxxxxxxx |    671455795 |    671455795 |    671455795 |    671455795 |xxxxxxxxxxxxx |xxxxxxxxxxxxx |xxxxxxxxxxxxx |   2685086259 |   2685086259 |   2685086259 |   2685086259 |
bpred_2lev.addr_hits                 xxxxxxxxxxxxx |xxxxxxxxxxxxx |xxxxxxxxxxxxx |     10495665 |     10495769 |     10496195 |     10496231 |xxxxxxxxxxxxx |xxxxxxxxxxxxx |xxxxxxxxxxxxx |     41953565 |     41954097 |     41955055 |     41955111 |xxxxxxxxxxxxx |xxxxxxxxxxxxx |xxxxxxxxxxxxx |    167782222 |    167783333 |    167785192 |    167785272 |xxxxxxxxxxxxx |xxxxxxxxxxxxx |xxxxxxxxxxxxx |    671082871 |    671087215 |    671091205 |    671091420 |xxxxxxxxxxxxx |xxxxxxxxxxxxx |xxxxxxxxxxxxx |   2684289948 |   2684298385 |   2684306607 |   2684307079 |
bpred_2lev.dir_hits                  xxxxxxxxxxxxx |xxxxxxxxxxxxx |xxxxxxxxxxxxx |     10495794 |     10495904 |     10496321 |     10496350 |xxxxxxxxxxxxx |xxxxxxxxxxxxx |xxxxxxxxxxxxx |     41953698 |     41954230 |     41955186 |     41955231 |xxxxxxxxxxxxx |xxxxxxxxxxxxx |xxxxxxxxxxxxx |    167782354 |    167783465 |    167785312 |    167785383 |xxxxxxxxxxxxx |xxxxxxxxxxxxx |xxxxxxxxxxxxx |    671083002 |    671087348 |    671091338 |    671091534 |xxxxxxxxxxxxx |xxxxxxxxxxxxx |xxxxxxxxxxxxx |   2684290084 |   2684298519 |   2684306741 |   2684307194 |
bpred_2lev.misses                    xxxxxxxxxxxxx |xxxxxxxxxxxxx |xxxxxxxxxxxxx |        38145 |        38035 |        37618 |        37589 |xxxxxxxxxxxxx |xxxxxxxxxxxxx |xxxxxxxxxxxxx |        83089 |        82557 |        81601 |        81556 |xxxxxxxxxxxxx |xxxxxxxxxxxxx |xxxxxxxxxxxxx |       174689 |       173578 |       171731 |       171660 |xxxxxxxxxxxxx |xxxxxxxxxxxxx |xxxxxxxxxxxxx |       372793 |       368447 |       364457 |       364261 |xxxxxxxxxxxxx |xxxxxxxxxxxxx |xxxxxxxxxxxxx |       796175 |       787740 |       779518 |       779065 |
bpred_2lev.jr_hits                   xxxxxxxxxxxxx |xxxxxxxxxxxxx |xxxxxxxxxxxxx |         8553 |         8553 |         8553 |         8553 |xxxxxxxxxxxxx |xxxxxxxxxxxxx |xxxxxxxxxxxxx |        16745 |        16745 |        16745 |        16745 |xxxxxxxxxxxxx |xxxxxxxxxxxxx |xxxxxxxxxxxxx |        33129 |        33129 |        33129 |        33129 |xxxxxxxxxxxxx |xxxxxxxxxxxxx |xxxxxxxxxxxxx |        65897 |        65897 |        65897 |        65897 |xxxxxxxxxxxxx |xxxxxxxxxxxxx |xxxxxxxxxxxxx |       131433 |       131433 |       131433 |       131433 |
bpred_2lev.jr_seen                   xxxxxxxxxxxxx |xxxxxxxxxxxxx |xxxxxxxxxxxxx |         8554 |         8554 |         8554 |         8554 |xxxxxxxxxxxxx |xxxxxxxxxxxxx |xxxxxxxxxxxxx |        16746 |        16746 |        16746 |        16746 |xxxxxxxxxxxxx |xxxxxxxxxxxxx |xxxxxxxxxxxxx |        33130 |        33130 |        33130 |        33130 |xxxxxxxxxxxxx |xxxxxxxxxxxxx |xxxxxxxxxxxxx |        65898 |        65898 |        65898 |        65898 |xxxxxxxxxxxxx |xxxxxxxxxxxxx |xxxxxxxxxxxxx |       131434 |       131434 |       131434 |       131434 |
bpred_2lev.jr_non_ras_hits.PP        xxxxxxxxxxxxx |xxxxxxxxxxxxx |xxxxxxxxxxxxx |            0 |            0 |            0 |            0 |xxxxxxxxxxxxx |xxxxxxxxxxxxx |xxxxxxxxxxxxx |            0 |            0 |            0 |            0 |xxxxxxxxxxxxx |xxxxxxxxxxxxx |xxxxxxxxxxxxx |            0 |            0 |            0 |            0 |xxxxxxxxxxxxx |xxxxxxxxxxxxx |xxxxxxxxxxxxx |            0 |            0 |            0 |            0 |xxxxxxxxxxxxx |xxxxxxxxxxxxx |xxxxxxxxxxxxx |            0 |            0 |            0 |            0 |
bpred_2lev.jr_non_ras_seen.PP        xxxxxxxxxxxxx |xxxxxxxxxxxxx |xxxxxxxxxxxxx |            0 |            0 |            0 |            0 |xxxxxxxxxxxxx |xxxxxxxxxxxxx |xxxxxxxxxxxxx |            0 |            0 |            0 |            0 |xxxxxxxxxxxxx |xxxxxxxxxxxxx |xxxxxxxxxxxxx |            0 |            0 |            0 |            0 |xxxxxxxxxxxxx |xxxxxxxxxxxxx |xxxxxxxxxxxxx |            0 |            0 |            0 |            0 |xxxxxxxxxxxxx |xxxxxxxxxxxxx |xxxxxxxxxxxxx |            0 |            0 |            0 |            0 |
bpred_2lev.bpred_addr_rate           xxxxxxxxxxxxx |xxxxxxxxxxxxx |xxxxxxxxxxxxx |       0.9964 |       0.9964 |       0.9964 |       0.9964 |xxxxxxxxxxxxx |xxxxxxxxxxxxx |xxxxxxxxxxxxx |       0.9980 |       0.9980 |       0.9981 |       0.9981 |xxxxxxxxxxxxx |xxxxxxxxxxxxx |xxxxxxxxxxxxx |       0.9990 |       0.9990 |       0.9990 |       0.9990 |xxxxxxxxxxxxx |xxxxxxxxxxxxx |xxxxxxxxxxxxx |       0.9994 |       0.9995 |       0.9995 |       0.9995 |xxxxxxxxxxxxx |xxxxxxxxxxxxx |xxxxxxxxxxxxx |       0.9997 |       0.9997 |       0.9997 |       0.9997 |
bpred_2lev.bpred_dir_rate            xxxxxxxxxxxxx |xxxxxxxxxxxxx |xxxxxxxxxxxxx |       0.9964 |       0.9964 |       0.9964 |       0.9964 |xxxxxxxxxxxxx |xxxxxxxxxxxxx |xxxxxxxxxxxxx |       0.9980 |       0.9980 |       0.9981 |       0.9981 |xxxxxxxxxxxxx |xxxxxxxxxxxxx |xxxxxxxxxxxxx |       0.9990 |       0.9990 |       0.9990 |       0.9990 |xxxxxxxxxxxxx |xxxxxxxxxxxxx |xxxxxxxxxxxxx |       0.9994 |       0.9995 |       0.9995 |       0.9995 |xxxxxxxxxxxxx |xxxxxxxxxxxxx |xxxxxxxxxxxxx |       0.9997 |       0.9997 |       0.9997 |       0.9997 |
bpred_2lev.bpred_jr_rate             xxxxxxxxxxxxx |xxxxxxxxxxxxx |xxxxxxxxxxxxx |       0.9999 |       0.9999 |       0.9999 |       0.9999 |xxxxxxxxxxxxx |xxxxxxxxxxxxx |xxxxxxxxxxxxx |       0.9999 |       0.9999 |       0.9999 |       0.9999 |xxxxxxxxxxxxx |xxxxxxxxxxxxx |xxxxxxxxxxxxx |       1.0000 |       1.0000 |       1.0000 |       1.0000 |xxxxxxxxxxxxx |xxxxxxxxxxxxx |xxxxxxxxxxxxx |       1.0000 |       1.0000 |       1.0000 |       1.0000 |xxxxxxxxxxxxx |xxxxxxxxxxxxx |xxxxxxxxxxxxx |       1.0000 |       1.0000 |       1.0000 |       1.0000 |
bpred_2lev.bpred_jr_non_ras_rate.PP  xxxxxxxxxxxxx |xxxxxxxxxxxxx |xxxxxxxxxxxxx |      <error: |      <error: |      <error: |      <error: |xxxxxxxxxxxxx |xxxxxxxxxxxxx |xxxxxxxxxxxxx |      <error: |      <error: |      <error: |      <error: |xxxxxxxxxxxxx |xxxxxxxxxxxxx |xxxxxxxxxxxxx |      <error: |      <error: |      <error: |      <error: |xxxxxxxxxxxxx |xxxxxxxxxxxxx |xxxxxxxxxxxxx |      <error: |      <error: |      <error: |      <error: |xxxxxxxxxxxxx |xxxxxxxxxxxxx |xxxxxxxxxxxxx |      <error: |      <error: |      <error: |      <error: |
bpred_2lev.retstack_pushes           xxxxxxxxxxxxx |xxxxxxxxxxxxx |xxxxxxxxxxxxx |         8556 |         8556 |         8556 |         8556 |xxxxxxxxxxxxx |xxxxxxxxxxxxx |xxxxxxxxxxxxx |        16748 |        16748 |        16748 |        16748 |xxxxxxxxxxxxx |xxxxxxxxxxxxx |xxxxxxxxxxxxx |        33132 |        33132 |        33132 |        33132 |xxxxxxxxxxxxx |xxxxxxxxxxxxx |xxxxxxxxxxxxx |        65900 |        65900 |        65900 |        65900 |xxxxxxxxxxxxx |xxxxxxxxxxxxx |xxxxxxxxxxxxx |       131436 |       131436 |       131436 |       131436 |
bpred_2lev.retstack_pops             xxxxxxxxxxxxx |xxxxxxxxxxxxx |xxxxxxxxxxxxx |         8554 |         8554 |         8554 |         8554 |xxxxxxxxxxxxx |xxxxxxxxxxxxx |xxxxxxxxxxxxx |        16746 |        16746 |        16746 |        16746 |xxxxxxxxxxxxx |xxxxxxxxxxxxx |xxxxxxxxxxxxx |        33130 |        33130 |        33130 |        33130 |xxxxxxxxxxxxx |xxxxxxxxxxxxx |xxxxxxxxxxxxx |        65898 |        65898 |        65898 |        65898 |xxxxxxxxxxxxx |xxxxxxxxxxxxx |xxxxxxxxxxxxx |       131434 |       131434 |       131434 |       131434 |
bpred_2lev.used_ras.PP               xxxxxxxxxxxxx |xxxxxxxxxxxxx |xxxxxxxxxxxxx |         8554 |         8554 |         8554 |         8554 |xxxxxxxxxxxxx |xxxxxxxxxxxxx |xxxxxxxxxxxxx |        16746 |        16746 |        16746 |        16746 |xxxxxxxxxxxxx |xxxxxxxxxxxxx |xxxxxxxxxxxxx |        33130 |        33130 |        33130 |        33130 |xxxxxxxxxxxxx |xxxxxxxxxxxxx |xxxxxxxxxxxxx |        65898 |        65898 |        65898 |        65898 |xxxxxxxxxxxxx |xxxxxxxxxxxxx |xxxxxxxxxxxxx |       131434 |       131434 |       131434 |       131434 |
bpred_2lev.ras_hits.PP               xxxxxxxxxxxxx |xxxxxxxxxxxxx |xxxxxxxxxxxxx |         8553 |         8553 |         8553 |         8553 |xxxxxxxxxxxxx |xxxxxxxxxxxxx |xxxxxxxxxxxxx |        16745 |        16745 |        16745 |        16745 |xxxxxxxxxxxxx |xxxxxxxxxxxxx |xxxxxxxxxxxxx |        33129 |        33129 |        33129 |        33129 |xxxxxxxxxxxxx |xxxxxxxxxxxxx |xxxxxxxxxxxxx |        65897 |        65897 |        65897 |        65897 |xxxxxxxxxxxxx |xxxxxxxxxxxxx |xxxxxxxxxxxxx |       131433 |       131433 |       131433 |       131433 |
bpred_2lev.ras_rate.PP               xxxxxxxxxxxxx |xxxxxxxxxxxxx |xxxxxxxxxxxxx |       0.9999 |       0.9999 |       0.9999 |       0.9999 |xxxxxxxxxxxxx |xxxxxxxxxxxxx |xxxxxxxxxxxxx |       0.9999 |       0.9999 |       0.9999 |       0.9999 |xxxxxxxxxxxxx |xxxxxxxxxxxxx |xxxxxxxxxxxxx |       1.0000 |       1.0000 |       1.0000 |       1.0000 |xxxxxxxxxxxxx |xxxxxxxxxxxxx |xxxxxxxxxxxxx |       1.0000 |       1.0000 |       1.0000 |       1.0000 |xxxxxxxxxxxxx |xxxxxxxxxxxxx |xxxxxxxxxxxxx |       1.0000 |       1.0000 |       1.0000 |       1.0000 |

Command list: 
	sslittle-na-sstrix-gcc -Wall -O3 -funroll-loops -finline-functions  -DRANDOM_SIZE=4096 -DSEED=0 -DSORT=on2_selectsort on2_selectsort1329400846.c simpleMain.c -o on2_selectsort1149378528
	sim-cache -cache:dl1 dl1:256:32:1:l -cache:dl2 dl2:131072:32:1:l -cache:il1 il1:256:32:1:l -cache:il2 dl2 on2_selectsort1149378528
	sim-cache -cache:dl1 dl1:256:32:1:l -cache:dl2 dl2:65536:32:1:l -cache:il1 il1:256:32:1:l -cache:il2 dl2 on2_selectsort1149378528
	sim-cache -cache:dl1 dl1:1:32:256:l -cache:dl2 dl2:1:32:131072:l -cache:il1 il1:1:32:256:l -cache:il2 dl2 on2_selectsort1149378528
	sim-cache -cache:dl1 dl1:1:32:256:l -cache:dl2 dl2:1:32:65536:l -cache:il1 il1:1:32:256:l -cache:il2 dl2 on2_selectsort1149378528
	sim-bpred -bpred bimod -bpred:bimod 512 on2_selectsort1149378528
	sim-bpred -bpred bimod -bpred:bimod 1024 on2_selectsort1149378528
	sim-bpred -bpred bimod -bpred:bimod 2048 on2_selectsort1149378528
	sim-bpred -bpred 2lev -bpred:2lev 1 512 10 1 on2_selectsort1149378528
	sim-bpred -bpred 2lev -bpred:2lev 1 1024 10 1 on2_selectsort1149378528
	sim-bpred -bpred 2lev -bpred:2lev 1 2048 10 1 on2_selectsort1149378528
	sim-bpred -bpred 2lev -bpred:2lev 1 4096 10 1 on2_selectsort1149378528
	sslittle-na-sstrix-gcc -Wall -O3 -funroll-loops -finline-functions  -DRANDOM_SIZE=8192 -DSEED=0 -DSORT=on2_selectsort on2_selectsort1329400846.c simpleMain.c -o on2_selectsort1149378528
	sim-cache -cache:dl1 dl1:256:32:1:l -cache:dl2 dl2:131072:32:1:l -cache:il1 il1:256:32:1:l -cache:il2 dl2 on2_selectsort1149378528
	sim-cache -cache:dl1 dl1:256:32:1:l -cache:dl2 dl2:65536:32:1:l -cache:il1 il1:256:32:1:l -cache:il2 dl2 on2_selectsort1149378528
	sim-cache -cache:dl1 dl1:1:32:256:l -cache:dl2 dl2:1:32:131072:l -cache:il1 il1:1:32:256:l -cache:il2 dl2 on2_selectsort1149378528
	sim-cache -cache:dl1 dl1:1:32:256:l -cache:dl2 dl2:1:32:65536:l -cache:il1 il1:1:32:256:l -cache:il2 dl2 on2_selectsort1149378528
	sim-bpred -bpred bimod -bpred:bimod 512 on2_selectsort1149378528
	sim-bpred -bpred bimod -bpred:bimod 1024 on2_selectsort1149378528
	sim-bpred -bpred bimod -bpred:bimod 2048 on2_selectsort1149378528
	sim-bpred -bpred 2lev -bpred:2lev 1 512 10 1 on2_selectsort1149378528
	sim-bpred -bpred 2lev -bpred:2lev 1 1024 10 1 on2_selectsort1149378528
	sim-bpred -bpred 2lev -bpred:2lev 1 2048 10 1 on2_selectsort1149378528
	sim-bpred -bpred 2lev -bpred:2lev 1 4096 10 1 on2_selectsort1149378528
	sslittle-na-sstrix-gcc -Wall -O3 -funroll-loops -finline-functions  -DRANDOM_SIZE=16384 -DSEED=0 -DSORT=on2_selectsort on2_selectsort1329400846.c simpleMain.c -o on2_selectsort1149378528
	sim-cache -cache:dl1 dl1:256:32:1:l -cache:dl2 dl2:131072:32:1:l -cache:il1 il1:256:32:1:l -cache:il2 dl2 on2_selectsort1149378528
	sim-cache -cache:dl1 dl1:256:32:1:l -cache:dl2 dl2:65536:32:1:l -cache:il1 il1:256:32:1:l -cache:il2 dl2 on2_selectsort1149378528
	sim-cache -cache:dl1 dl1:1:32:256:l -cache:dl2 dl2:1:32:131072:l -cache:il1 il1:1:32:256:l -cache:il2 dl2 on2_selectsort1149378528
	sim-cache -cache:dl1 dl1:1:32:256:l -cache:dl2 dl2:1:32:65536:l -cache:il1 il1:1:32:256:l -cache:il2 dl2 on2_selectsort1149378528
	sim-bpred -bpred bimod -bpred:bimod 512 on2_selectsort1149378528
	sim-bpred -bpred bimod -bpred:bimod 1024 on2_selectsort1149378528
	sim-bpred -bpred bimod -bpred:bimod 2048 on2_selectsort1149378528
	sim-bpred -bpred 2lev -bpred:2lev 1 512 10 1 on2_selectsort1149378528
	sim-bpred -bpred 2lev -bpred:2lev 1 1024 10 1 on2_selectsort1149378528
	sim-bpred -bpred 2lev -bpred:2lev 1 2048 10 1 on2_selectsort1149378528
	sim-bpred -bpred 2lev -bpred:2lev 1 4096 10 1 on2_selectsort1149378528
	sslittle-na-sstrix-gcc -Wall -O3 -funroll-loops -finline-functions  -DRANDOM_SIZE=32768 -DSEED=0 -DSORT=on2_selectsort on2_selectsort1329400846.c simpleMain.c -o on2_selectsort1149378528
	sim-cache -cache:dl1 dl1:256:32:1:l -cache:dl2 dl2:131072:32:1:l -cache:il1 il1:256:32:1:l -cache:il2 dl2 on2_selectsort1149378528
	sim-cache -cache:dl1 dl1:256:32:1:l -cache:dl2 dl2:65536:32:1:l -cache:il1 il1:256:32:1:l -cache:il2 dl2 on2_selectsort1149378528
	sim-cache -cache:dl1 dl1:1:32:256:l -cache:dl2 dl2:1:32:131072:l -cache:il1 il1:1:32:256:l -cache:il2 dl2 on2_selectsort1149378528
	sim-cache -cache:dl1 dl1:1:32:256:l -cache:dl2 dl2:1:32:65536:l -cache:il1 il1:1:32:256:l -cache:il2 dl2 on2_selectsort1149378528
	sim-bpred -bpred bimod -bpred:bimod 512 on2_selectsort1149378528
	sim-bpred -bpred bimod -bpred:bimod 1024 on2_selectsort1149378528
	sim-bpred -bpred bimod -bpred:bimod 2048 on2_selectsort1149378528
	sim-bpred -bpred 2lev -bpred:2lev 1 512 10 1 on2_selectsort1149378528
	sim-bpred -bpred 2lev -bpred:2lev 1 1024 10 1 on2_selectsort1149378528
	sim-bpred -bpred 2lev -bpred:2lev 1 2048 10 1 on2_selectsort1149378528
	sim-bpred -bpred 2lev -bpred:2lev 1 4096 10 1 on2_selectsort1149378528
	sslittle-na-sstrix-gcc -Wall -O3 -funroll-loops -finline-functions  -DRANDOM_SIZE=65536 -DSEED=0 -DSORT=on2_selectsort on2_selectsort1329400846.c simpleMain.c -o on2_selectsort1149378528
	sim-cache -cache:dl1 dl1:256:32:1:l -cache:dl2 dl2:131072:32:1:l -cache:il1 il1:256:32:1:l -cache:il2 dl2 on2_selectsort1149378528
	sim-cache -cache:dl1 dl1:256:32:1:l -cache:dl2 dl2:65536:32:1:l -cache:il1 il1:256:32:1:l -cache:il2 dl2 on2_selectsort1149378528
	sim-cache -cache:dl1 dl1:1:32:256:l -cache:dl2 dl2:1:32:131072:l -cache:il1 il1:1:32:256:l -cache:il2 dl2 on2_selectsort1149378528
	sim-cache -cache:dl1 dl1:1:32:256:l -cache:dl2 dl2:1:32:65536:l -cache:il1 il1:1:32:256:l -cache:il2 dl2 on2_selectsort1149378528
	sim-bpred -bpred bimod -bpred:bimod 512 on2_selectsort1149378528
	sim-bpred -bpred bimod -bpred:bimod 1024 on2_selectsort1149378528
	sim-bpred -bpred bimod -bpred:bimod 2048 on2_selectsort1149378528
	sim-bpred -bpred 2lev -bpred:2lev 1 512 10 1 on2_selectsort1149378528
	sim-bpred -bpred 2lev -bpred:2lev 1 1024 10 1 on2_selectsort1149378528
	sim-bpred -bpred 2lev -bpred:2lev 1 2048 10 1 on2_selectsort1149378528
	sim-bpred -bpred 2lev -bpred:2lev 1 4096 10 1 on2_selectsort1149378528
