Fri Mar 26 06:43:40 2004
Run as: "./simple -c  -M 65536 on2_shakersort"
-------------------------------------------------------------------------------------------------
sim-cache                                     4096 |         4096 |         4096 |         4096 |         8192 |         8192 |         8192 |         8192 |        16384 |        16384 |        16384 |        16384 |        32768 |        32768 |        32768 |        32768 |        65536 |        65536 |        65536 |        65536 |
-cache:dl1 dl1:256:32:1:l -cache:dl2 dl2:131072:32:1:l -cache:il1 il1:256:32:1:l -cache:il2 dl2
-cache:dl1 dl1:256:32:1:l -cache:dl2 dl2:65536:32:1:l -cache:il1 il1:256:32:1:l -cache:il2 dl2
-cache:dl1 dl1:1:32:256:l -cache:dl2 dl2:1:32:131072:l -cache:il1 il1:1:32:256:l -cache:il2 dl2
-cache:dl1 dl1:1:32:256:l -cache:dl2 dl2:1:32:65536:l -cache:il1 il1:1:32:256:l -cache:il2 dl2
-------------------------------------------------------------------------------------------------
sim_num_insn                              49430276 |     49430276 |     49430276 |     49430276 |    198547324 |    198547324 |    198547324 |    198547324 |    772908218 |    772908218 |    772908218 |    772908218 |   3111760215 |   3111760215 |   3111760215 |   3111760215 |  12462330341 |  12462330341 |  12462330341 |  12462330341 |
sim_num_refs                              21236418 |     21236418 |     21236418 |     21236418 |     85288318 |     85288318 |     85288318 |     85288318 |    332446134 |    332446134 |    332446134 |    332446134 |   1337929706 |   1337929706 |   1337929706 |   1337929706 |   5356142248 |   5356142248 |   5356142248 |   5356142248 |
sim_elapsed_time                                14 |           15 |           21 |           17 |           59 |           59 |           75 |           62 |          229 |          229 |          239 |          232 |          921 |          921 |          928 |          917 |         3670 |         3666 |         3657 |         3645 |
sim_inst_rate                         3530734.0000 | 3295351.7333 | 2353822.6667 | 2907663.2941 | 3365208.8814 | 3365208.8814 | 2647297.6533 | 3202376.1935 | 3375145.0568 | 3375145.0568 | 3233925.5983 | 3331500.9397 | 3378675.5863 | 3378675.5863 | 3353189.8869 | 3393413.5387 | 3395730.3381 | 3399435.4449 | 3407801.5699 | 3419020.6697 |
il1.accesses                              49430276 |     49430276 |     49430276 |     49430276 |    198547324 |    198547324 |    198547324 |    198547324 |    772908218 |    772908218 |    772908218 |    772908218 |   3111760215 |   3111760215 |   3111760215 |   3111760215 |  12462330341 |  12462330341 |  12462330341 |  12462330341 |
il1.hits                                  49429872 |     49429872 |     49429930 |     49429930 |    198546919 |    198546919 |    198546977 |    198546977 |    772907810 |    772907810 |    772907876 |    772907876 |   3111759806 |   3111759806 |   3111759872 |   3111759872 |  12462329932 |  12462329932 |  12462329998 |  12462329998 |
il1.misses                                     404 |          404 |          346 |          346 |          405 |          405 |          347 |          347 |          408 |          408 |          342 |          342 |          409 |          409 |          343 |          343 |          409 |          409 |          343 |          343 |
il1.replacements                               209 |          209 |           90 |           90 |          209 |          209 |           91 |           91 |          216 |          216 |           86 |           86 |          217 |          217 |           87 |           87 |          217 |          217 |           87 |           87 |
il1.writebacks                                   0 |            0 |            0 |            0 |            0 |            0 |            0 |            0 |            0 |            0 |            0 |            0 |            0 |            0 |            0 |            0 |            0 |            0 |            0 |            0 |
il1.invalidations                                0 |            0 |            0 |            0 |            0 |            0 |            0 |            0 |            0 |            0 |            0 |            0 |            0 |            0 |            0 |            0 |            0 |            0 |            0 |            0 |
il1.miss_rate                               0.0000 |       0.0000 |       0.0000 |       0.0000 |       0.0000 |       0.0000 |       0.0000 |       0.0000 |       0.0000 |       0.0000 |       0.0000 |       0.0000 |       0.0000 |       0.0000 |       0.0000 |       0.0000 |       0.0000 |       0.0000 |       0.0000 |       0.0000 |
il1.repl_rate                               0.0000 |       0.0000 |       0.0000 |       0.0000 |       0.0000 |       0.0000 |       0.0000 |       0.0000 |       0.0000 |       0.0000 |       0.0000 |       0.0000 |       0.0000 |       0.0000 |       0.0000 |       0.0000 |       0.0000 |       0.0000 |       0.0000 |       0.0000 |
il1.wb_rate                                 0.0000 |       0.0000 |       0.0000 |       0.0000 |       0.0000 |       0.0000 |       0.0000 |       0.0000 |       0.0000 |       0.0000 |       0.0000 |       0.0000 |       0.0000 |       0.0000 |       0.0000 |       0.0000 |       0.0000 |       0.0000 |       0.0000 |       0.0000 |
il1.inv_rate                                0.0000 |       0.0000 |       0.0000 |       0.0000 |       0.0000 |       0.0000 |       0.0000 |       0.0000 |       0.0000 |       0.0000 |       0.0000 |       0.0000 |       0.0000 |       0.0000 |       0.0000 |       0.0000 |       0.0000 |       0.0000 |       0.0000 |       0.0000 |
dl1.accesses                              21236488 |     21236488 |     21236488 |     21236488 |     85288388 |     85288388 |     85288388 |     85288388 |    332446204 |    332446204 |    332446204 |    332446204 |   1337929776 |   1337929776 |   1337929776 |   1337929776 |   5356142318 |   5356142318 |   5356142318 |   5356142318 |
dl1.hits                                  20971121 |     20971121 |     20971193 |     20971193 |     83156702 |     83156702 |     83156908 |     83156908 |    322046567 |    322046567 |    322047127 |    322047127 |   1291888211 |   1291888211 |   1291889083 |   1291889083 |   5163251345 |   5163251345 |   5163253089 |   5163253089 |
dl1.misses                                  265367 |       265367 |       265295 |       265295 |      2131686 |      2131686 |      2131480 |      2131480 |     10399637 |     10399637 |     10399077 |     10399077 |     46041565 |     46041565 |     46040693 |     46040693 |    192890973 |    192890973 |    192889229 |    192889229 |
dl1.replacements                            265111 |       265111 |       265039 |       265039 |      2131430 |      2131430 |      2131224 |      2131224 |     10399381 |     10399381 |     10398821 |     10398821 |     46041309 |     46041309 |     46040437 |     46040437 |    192890717 |    192890717 |    192888973 |    192888973 |
dl1.writebacks                              237233 |       237233 |       237161 |       237161 |      1946939 |      1946939 |      1946735 |      1946735 |      9650845 |      9650845 |      9650320 |      9650320 |     42245209 |     42245209 |     42244388 |     42244388 |    174566507 |    174566507 |    174564861 |    174564861 |
dl1.invalidations                                0 |            0 |            0 |            0 |            0 |            0 |            0 |            0 |            0 |            0 |            0 |            0 |            0 |            0 |            0 |            0 |            0 |            0 |            0 |            0 |
dl1.miss_rate                               0.0125 |       0.0125 |       0.0125 |       0.0125 |       0.0250 |       0.0250 |       0.0250 |       0.0250 |       0.0313 |       0.0313 |       0.0313 |       0.0313 |       0.0344 |       0.0344 |       0.0344 |       0.0344 |       0.0360 |       0.0360 |       0.0360 |       0.0360 |
dl1.repl_rate                               0.0125 |       0.0125 |       0.0125 |       0.0125 |       0.0250 |       0.0250 |       0.0250 |       0.0250 |       0.0313 |       0.0313 |       0.0313 |       0.0313 |       0.0344 |       0.0344 |       0.0344 |       0.0344 |       0.0360 |       0.0360 |       0.0360 |       0.0360 |
dl1.wb_rate                                 0.0112 |       0.0112 |       0.0112 |       0.0112 |       0.0228 |       0.0228 |       0.0228 |       0.0228 |       0.0290 |       0.0290 |       0.0290 |       0.0290 |       0.0316 |       0.0316 |       0.0316 |       0.0316 |       0.0326 |       0.0326 |       0.0326 |       0.0326 |
dl1.inv_rate                                0.0000 |       0.0000 |       0.0000 |       0.0000 |       0.0000 |       0.0000 |       0.0000 |       0.0000 |       0.0000 |       0.0000 |       0.0000 |       0.0000 |       0.0000 |       0.0000 |       0.0000 |       0.0000 |       0.0000 |       0.0000 |       0.0000 |       0.0000 |
dl2.accesses                                503004 |       503004 |       502802 |       502802 |      4079030 |      4079030 |      4078562 |      4078562 |     20050890 |     20050890 |     20049739 |     20049739 |     88287183 |     88287183 |     88285424 |     88285424 |    367457889 |    367457889 |    367454433 |    367454433 |
dl2.hits                                    501699 |       501699 |       501530 |       501530 |      4077214 |      4077214 |      4076777 |      4076777 |     20048053 |     20048053 |     20046933 |     20046933 |     88282298 |     88282298 |     88280569 |     88280569 |    367448908 |    367448908 |    367445482 |    367445482 |
dl2.misses                                    1305 |         1305 |         1272 |         1272 |         1816 |         1816 |         1785 |         1785 |         2837 |         2837 |         2806 |         2806 |         4885 |         4885 |         4855 |         4855 |         8981 |         8981 |         8951 |         8951 |
dl2.replacements                               209 |          209 |            0 |            0 |          208 |          208 |            0 |            0 |          211 |          211 |            0 |            0 |          211 |          211 |            0 |            0 |          211 |          211 |            0 |            0 |
dl2.writebacks                                  33 |           33 |            0 |            0 |           32 |           32 |            0 |            0 |           30 |           30 |            0 |            0 |           30 |           30 |            0 |            0 |           30 |           30 |            0 |            0 |
dl2.invalidations                                0 |            0 |            0 |            0 |            0 |            0 |            0 |            0 |            0 |            0 |            0 |            0 |            0 |            0 |            0 |            0 |            0 |            0 |            0 |            0 |
dl2.miss_rate                               0.0026 |       0.0026 |       0.0025 |       0.0025 |       0.0004 |       0.0004 |       0.0004 |       0.0004 |       0.0001 |       0.0001 |       0.0001 |       0.0001 |       0.0001 |       0.0001 |       0.0001 |       0.0001 |       0.0000 |       0.0000 |       0.0000 |       0.0000 |
dl2.repl_rate                               0.0004 |       0.0004 |       0.0000 |       0.0000 |       0.0001 |       0.0001 |       0.0000 |       0.0000 |       0.0000 |       0.0000 |       0.0000 |       0.0000 |       0.0000 |       0.0000 |       0.0000 |       0.0000 |       0.0000 |       0.0000 |       0.0000 |       0.0000 |
dl2.wb_rate                                 0.0001 |       0.0001 |       0.0000 |       0.0000 |       0.0000 |       0.0000 |       0.0000 |       0.0000 |       0.0000 |       0.0000 |       0.0000 |       0.0000 |       0.0000 |       0.0000 |       0.0000 |       0.0000 |       0.0000 |       0.0000 |       0.0000 |       0.0000 |
dl2.inv_rate                                0.0000 |       0.0000 |       0.0000 |       0.0000 |       0.0000 |       0.0000 |       0.0000 |       0.0000 |       0.0000 |       0.0000 |       0.0000 |       0.0000 |       0.0000 |       0.0000 |       0.0000 |       0.0000 |       0.0000 |       0.0000 |       0.0000 |       0.0000 |
itlb.accesses                             49430276 |     49430276 |     49430276 |     49430276 |    198547324 |    198547324 |    198547324 |    198547324 |    772908218 |    772908218 |    772908218 |    772908218 |   3111760215 |   3111760215 |   3111760215 |   3111760215 |  12462330341 |  12462330341 |  12462330341 |  12462330341 |
itlb.hits                                 49430269 |     49430269 |     49430269 |     49430269 |    198547317 |    198547317 |    198547317 |    198547317 |    772908211 |    772908211 |    772908211 |    772908211 |   3111760208 |   3111760208 |   3111760208 |   3111760208 |  12462330334 |  12462330334 |  12462330334 |  12462330334 |
itlb.misses                                      7 |            7 |            7 |            7 |            7 |            7 |            7 |            7 |            7 |            7 |            7 |            7 |            7 |            7 |            7 |            7 |            7 |            7 |            7 |            7 |
itlb.replacements                                0 |            0 |            0 |            0 |            0 |            0 |            0 |            0 |            0 |            0 |            0 |            0 |            0 |            0 |            0 |            0 |            0 |            0 |            0 |            0 |
itlb.writebacks                                  0 |            0 |            0 |            0 |            0 |            0 |            0 |            0 |            0 |            0 |            0 |            0 |            0 |            0 |            0 |            0 |            0 |            0 |            0 |            0 |
itlb.invalidations                               0 |            0 |            0 |            0 |            0 |            0 |            0 |            0 |            0 |            0 |            0 |            0 |            0 |            0 |            0 |            0 |            0 |            0 |            0 |            0 |
itlb.miss_rate                              0.0000 |       0.0000 |       0.0000 |       0.0000 |       0.0000 |       0.0000 |       0.0000 |       0.0000 |       0.0000 |       0.0000 |       0.0000 |       0.0000 |       0.0000 |       0.0000 |       0.0000 |       0.0000 |       0.0000 |       0.0000 |       0.0000 |       0.0000 |
itlb.repl_rate                              0.0000 |       0.0000 |       0.0000 |       0.0000 |       0.0000 |       0.0000 |       0.0000 |       0.0000 |       0.0000 |       0.0000 |       0.0000 |       0.0000 |       0.0000 |       0.0000 |       0.0000 |       0.0000 |       0.0000 |       0.0000 |       0.0000 |       0.0000 |
itlb.wb_rate                                0.0000 |       0.0000 |       0.0000 |       0.0000 |       0.0000 |       0.0000 |       0.0000 |       0.0000 |       0.0000 |       0.0000 |       0.0000 |       0.0000 |       0.0000 |       0.0000 |       0.0000 |       0.0000 |       0.0000 |       0.0000 |       0.0000 |       0.0000 |
itlb.inv_rate                               0.0000 |       0.0000 |       0.0000 |       0.0000 |       0.0000 |       0.0000 |       0.0000 |       0.0000 |       0.0000 |       0.0000 |       0.0000 |       0.0000 |       0.0000 |       0.0000 |       0.0000 |       0.0000 |       0.0000 |       0.0000 |       0.0000 |       0.0000 |
dtlb.accesses                             21236488 |     21236488 |     21236488 |     21236488 |     85288388 |     85288388 |     85288388 |     85288388 |    332446204 |    332446204 |    332446204 |    332446204 |   1337929776 |   1337929776 |   1337929776 |   1337929776 |   5356142318 |   5356142318 |   5356142318 |   5356142318 |
dtlb.hits                                 21236478 |     21236478 |     21236478 |     21236478 |     85288374 |     85288374 |     85288374 |     85288374 |    332446182 |    332446182 |    332446182 |    332446182 |   1337929738 |   1337929738 |   1337929738 |   1337929738 |   5356142248 |   5356142248 |   5356142248 |   5356142248 |
dtlb.misses                                     10 |           10 |           10 |           10 |           14 |           14 |           14 |           14 |           22 |           22 |           22 |           22 |           38 |           38 |           38 |           38 |           70 |           70 |           70 |           70 |
dtlb.replacements                                0 |            0 |            0 |            0 |            0 |            0 |            0 |            0 |            0 |            0 |            0 |            0 |            0 |            0 |            0 |            0 |            0 |            0 |            0 |            0 |
dtlb.writebacks                                  0 |            0 |            0 |            0 |            0 |            0 |            0 |            0 |            0 |            0 |            0 |            0 |            0 |            0 |            0 |            0 |            0 |            0 |            0 |            0 |
dtlb.invalidations                               0 |            0 |            0 |            0 |            0 |            0 |            0 |            0 |            0 |            0 |            0 |            0 |            0 |            0 |            0 |            0 |            0 |            0 |            0 |            0 |
dtlb.miss_rate                              0.0000 |       0.0000 |       0.0000 |       0.0000 |       0.0000 |       0.0000 |       0.0000 |       0.0000 |       0.0000 |       0.0000 |       0.0000 |       0.0000 |       0.0000 |       0.0000 |       0.0000 |       0.0000 |       0.0000 |       0.0000 |       0.0000 |       0.0000 |
dtlb.repl_rate                              0.0000 |       0.0000 |       0.0000 |       0.0000 |       0.0000 |       0.0000 |       0.0000 |       0.0000 |       0.0000 |       0.0000 |       0.0000 |       0.0000 |       0.0000 |       0.0000 |       0.0000 |       0.0000 |       0.0000 |       0.0000 |       0.0000 |       0.0000 |
dtlb.wb_rate                                0.0000 |       0.0000 |       0.0000 |       0.0000 |       0.0000 |       0.0000 |       0.0000 |       0.0000 |       0.0000 |       0.0000 |       0.0000 |       0.0000 |       0.0000 |       0.0000 |       0.0000 |       0.0000 |       0.0000 |       0.0000 |       0.0000 |       0.0000 |
dtlb.inv_rate                               0.0000 |       0.0000 |       0.0000 |       0.0000 |       0.0000 |       0.0000 |       0.0000 |       0.0000 |       0.0000 |       0.0000 |       0.0000 |       0.0000 |       0.0000 |       0.0000 |       0.0000 |       0.0000 |       0.0000 |       0.0000 |       0.0000 |       0.0000 |
ld_text_base                            0x00400000 |   0x00400000 |   0x00400000 |   0x00400000 |   0x00400000 |   0x00400000 |   0x00400000 |   0x00400000 |   0x00400000 |   0x00400000 |   0x00400000 |   0x00400000 |   0x00400000 |   0x00400000 |   0x00400000 |   0x00400000 |   0x00400000 |   0x00400000 |   0x00400000 |   0x00400000 |
ld_text_size                                 26816 |        26816 |        26816 |        26816 |        26848 |        26848 |        26848 |        26848 |        26864 |        26864 |        26864 |        26864 |        26896 |        26896 |        26896 |        26896 |        26896 |        26896 |        26896 |        26896 |
ld_data_base                            0x10000000 |   0x10000000 |   0x10000000 |   0x10000000 |   0x10000000 |   0x10000000 |   0x10000000 |   0x10000000 |   0x10000000 |   0x10000000 |   0x10000000 |   0x10000000 |   0x10000000 |   0x10000000 |   0x10000000 |   0x10000000 |   0x10000000 |   0x10000000 |   0x10000000 |   0x10000000 |
ld_data_size                                  4096 |         4096 |         4096 |         4096 |         4096 |         4096 |         4096 |         4096 |         4096 |         4096 |         4096 |         4096 |         4096 |         4096 |         4096 |         4096 |         4096 |         4096 |         4096 |         4096 |
ld_stack_base                           0x7fffc000 |   0x7fffc000 |   0x7fffc000 |   0x7fffc000 |   0x7fffc000 |   0x7fffc000 |   0x7fffc000 |   0x7fffc000 |   0x7fffc000 |   0x7fffc000 |   0x7fffc000 |   0x7fffc000 |   0x7fffc000 |   0x7fffc000 |   0x7fffc000 |   0x7fffc000 |   0x7fffc000 |   0x7fffc000 |   0x7fffc000 |   0x7fffc000 |
ld_stack_size                                16384 |        16384 |        16384 |        16384 |        16384 |        16384 |        16384 |        16384 |        16384 |        16384 |        16384 |        16384 |        16384 |        16384 |        16384 |        16384 |        16384 |        16384 |        16384 |        16384 |
ld_prog_entry                           0x00400140 |   0x00400140 |   0x00400140 |   0x00400140 |   0x00400140 |   0x00400140 |   0x00400140 |   0x00400140 |   0x00400140 |   0x00400140 |   0x00400140 |   0x00400140 |   0x00400140 |   0x00400140 |   0x00400140 |   0x00400140 |   0x00400140 |   0x00400140 |   0x00400140 |   0x00400140 |
ld_environ_base                         0x7fff8000 |   0x7fff8000 |   0x7fff8000 |   0x7fff8000 |   0x7fff8000 |   0x7fff8000 |   0x7fff8000 |   0x7fff8000 |   0x7fff8000 |   0x7fff8000 |   0x7fff8000 |   0x7fff8000 |   0x7fff8000 |   0x7fff8000 |   0x7fff8000 |   0x7fff8000 |   0x7fff8000 |   0x7fff8000 |   0x7fff8000 |   0x7fff8000 |
ld_target_big_endian                             0 |            0 |            0 |            0 |            0 |            0 |            0 |            0 |            0 |            0 |            0 |            0 |            0 |            0 |            0 |            0 |            0 |            0 |            0 |            0 |
mem.page_count                                  17 |           17 |           17 |           17 |           21 |           21 |           21 |           21 |           29 |           29 |           29 |           29 |           45 |           45 |           45 |           45 |           77 |           77 |           77 |           77 |
mem.page_mem                                   68k |          68k |          68k |          68k |          84k |          84k |          84k |          84k |         116k |         116k |         116k |         116k |         180k |         180k |         180k |         180k |         308k |         308k |         308k |         308k |
mem.ptab_misses                                 17 |           17 |           17 |           17 |           21 |           21 |           21 |           21 |           29 |           29 |           29 |           29 |           45 |           45 |           45 |           45 |           77 |           77 |           77 |           77 |
mem.ptab_accesses                        240360190 |    240360190 |    240360190 |    240360190 |    964932374 |    964932374 |    964932374 |    964932374 |   3756691678 |   3756691678 |   3756691678 |   3756691678 |  15123067002 |  15123067002 |  15123067002 |  15123067002 |  60561772590 |  60561772590 |  60561772590 |  60561772590 |
mem.ptab_miss_rate                          0.0000 |       0.0000 |       0.0000 |       0.0000 |       0.0000 |       0.0000 |       0.0000 |       0.0000 |       0.0000 |       0.0000 |       0.0000 |       0.0000 |       0.0000 |       0.0000 |       0.0000 |       0.0000 |       0.0000 |       0.0000 |       0.0000 |       0.0000 |
-------------------------------------------------------------------------------------------------
sim-bpred                                     4096 |         4096 |         4096 |         4096 |         4096 |         4096 |         4096 |         8192 |         8192 |         8192 |         8192 |         8192 |         8192 |         8192 |        16384 |        16384 |        16384 |        16384 |        16384 |        16384 |        16384 |        32768 |        32768 |        32768 |        32768 |        32768 |        32768 |        32768 |        65536 |        65536 |        65536 |        65536 |        65536 |        65536 |        65536 |
-bpred bimod -bpred:bimod 512
-bpred bimod -bpred:bimod 1024
-bpred bimod -bpred:bimod 2048
-bpred 2lev -bpred:2lev 1 512 10 1
-bpred 2lev -bpred:2lev 1 1024 10 1
-bpred 2lev -bpred:2lev 1 2048 10 1
-bpred 2lev -bpred:2lev 1 4096 10 1
-------------------------------------------------------------------------------------------------
sim_num_insn                              49430276 |     49430276 |     49430276 |     49430276 |     49430276 |     49430276 |     49430276 |    198547324 |    198547324 |    198547324 |    198547324 |    198547324 |    198547324 |    198547324 |    772908218 |    772908218 |    772908218 |    772908218 |    772908218 |    772908218 |    772908218 |   3111760215 |   3111760215 |   3111760215 |   3111760215 |   3111760215 |   3111760215 |   3111760215 |  12462330341 |  12462330341 |  12462330341 |  12462330341 |  12462330341 |  12462330341 |  12462330341 |
sim_num_refs                              21236418 |     21236418 |     21236418 |     21236418 |     21236418 |     21236418 |     21236418 |     85288318 |     85288318 |     85288318 |     85288318 |     85288318 |     85288318 |     85288318 |    332446134 |    332446134 |    332446134 |    332446134 |    332446134 |    332446134 |    332446134 |   1337929706 |   1337929706 |   1337929706 |   1337929706 |   1337929706 |   1337929706 |   1337929706 |   5356142248 |   5356142248 |   5356142248 |   5356142248 |   5356142248 |   5356142248 |   5356142248 |
sim_elapsed_time                                 6 |            5 |            6 |            6 |            6 |            5 |            6 |           23 |           22 |           23 |           23 |           24 |           23 |           23 |           88 |           88 |           89 |           91 |           90 |           91 |           90 |          356 |          355 |          356 |          364 |          363 |          364 |          365 |         1441 |         1435 |         1443 |         1472 |         1473 |         1475 |         1475 |
sim_inst_rate                         8238379.3333 | 9886055.2000 | 8238379.3333 | 8238379.3333 | 8238379.3333 | 9886055.2000 | 8238379.3333 | 8632492.3478 | 9024878.3636 | 8632492.3478 | 8632492.3478 | 8272805.1667 | 8632492.3478 | 8632492.3478 | 8783047.9318 | 8783047.9318 | 8684362.0000 | 8493496.9011 | 8587869.0889 | 8493496.9011 | 8587869.0889 | 8740899.4803 | 8765521.7324 | 8740899.4803 | 8548791.7995 | 8572342.1901 | 8548791.7995 | 8525370.4521 | 8648390.2436 | 8684550.7603 | 8636403.5627 | 8466257.0251 | 8460509.3965 | 8449037.5193 | 8449037.5193 |
sim_num_branches                           7995803 |      7995803 |      7995803 |      7995803 |      7995803 |      7995803 |      7995803 |     32110660 |     32110660 |     32110660 |     32110660 |     32110660 |     32110660 |     32110660 |    124680572 |    124680572 |    124680572 |    124680572 |    124680572 |    124680572 |    124680572 |    502263436 |    502263436 |    502263436 |    502263436 |    502263436 |    502263436 |    502263436 |   2012883053 |   2012883053 |   2012883053 |   2012883053 |   2012883053 |   2012883053 |   2012883053 |
sim_IPB                                     6.1820 |       6.1820 |       6.1820 |       6.1820 |       6.1820 |       6.1820 |       6.1820 |       6.1832 |       6.1832 |       6.1832 |       6.1832 |       6.1832 |       6.1832 |       6.1832 |       6.1991 |       6.1991 |       6.1991 |       6.1991 |       6.1991 |       6.1991 |       6.1991 |       6.1955 |       6.1955 |       6.1955 |       6.1955 |       6.1955 |       6.1955 |       6.1955 |       6.1913 |       6.1913 |       6.1913 |       6.1913 |       6.1913 |       6.1913 |       6.1913 |
bpred_bimod.lookups                        7995803 |      7995803 |      7995803 |xxxxxxxxxxxxx |xxxxxxxxxxxxx |xxxxxxxxxxxxx |xxxxxxxxxxxxx |     32110660 |     32110660 |     32110660 |xxxxxxxxxxxxx |xxxxxxxxxxxxx |xxxxxxxxxxxxx |xxxxxxxxxxxxx |    124680572 |    124680572 |    124680572 |xxxxxxxxxxxxx |xxxxxxxxxxxxx |xxxxxxxxxxxxx |xxxxxxxxxxxxx |    502263436 |    502263436 |    502263436 |xxxxxxxxxxxxx |xxxxxxxxxxxxx |xxxxxxxxxxxxx |xxxxxxxxxxxxx |   2012883053 |   2012883053 |   2012883053 |
bpred_bimod.updates                        7995803 |      7995803 |      7995803 |xxxxxxxxxxxxx |xxxxxxxxxxxxx |xxxxxxxxxxxxx |xxxxxxxxxxxxx |     32110660 |     32110660 |     32110660 |xxxxxxxxxxxxx |xxxxxxxxxxxxx |xxxxxxxxxxxxx |xxxxxxxxxxxxx |    124680572 |    124680572 |    124680572 |xxxxxxxxxxxxx |xxxxxxxxxxxxx |xxxxxxxxxxxxx |xxxxxxxxxxxxx |    502263436 |    502263436 |    502263436 |xxxxxxxxxxxxx |xxxxxxxxxxxxx |xxxxxxxxxxxxx |xxxxxxxxxxxxx |   2012883053 |   2012883053 |   2012883053 |
bpred_bimod.addr_hits                      6576151 |      6576153 |      6576154 |xxxxxxxxxxxxx |xxxxxxxxxxxxx |xxxxxxxxxxxxx |xxxxxxxxxxxxx |     26379868 |     26379870 |     26379873 |xxxxxxxxxxxxx |xxxxxxxxxxxxx |xxxxxxxxxxxxx |xxxxxxxxxxxxx |    102197266 |    102197268 |    102197268 |xxxxxxxxxxxxx |xxxxxxxxxxxxx |xxxxxxxxxxxxx |xxxxxxxxxxxxx |    413124312 |    413124314 |    413124314 |xxxxxxxxxxxxx |xxxxxxxxxxxxx |xxxxxxxxxxxxx |xxxxxxxxxxxxx |   1654122550 |   1654122552 |   1654122552 |
bpred_bimod.dir_hits                       6576253 |      6576256 |      6576255 |xxxxxxxxxxxxx |xxxxxxxxxxxxx |xxxxxxxxxxxxx |xxxxxxxxxxxxx |     26379972 |     26379974 |     26379974 |xxxxxxxxxxxxx |xxxxxxxxxxxxx |xxxxxxxxxxxxx |xxxxxxxxxxxxx |    102197368 |    102197372 |    102197370 |xxxxxxxxxxxxx |xxxxxxxxxxxxx |xxxxxxxxxxxxx |xxxxxxxxxxxxx |    413124417 |    413124420 |    413124418 |xxxxxxxxxxxxx |xxxxxxxxxxxxx |xxxxxxxxxxxxx |xxxxxxxxxxxxx |   1654122654 |   1654122657 |   1654122655 |
bpred_bimod.misses                         1419550 |      1419547 |      1419548 |xxxxxxxxxxxxx |xxxxxxxxxxxxx |xxxxxxxxxxxxx |xxxxxxxxxxxxx |      5730688 |      5730686 |      5730686 |xxxxxxxxxxxxx |xxxxxxxxxxxxx |xxxxxxxxxxxxx |xxxxxxxxxxxxx |     22483204 |     22483200 |     22483202 |xxxxxxxxxxxxx |xxxxxxxxxxxxx |xxxxxxxxxxxxx |xxxxxxxxxxxxx |     89139019 |     89139016 |     89139018 |xxxxxxxxxxxxx |xxxxxxxxxxxxx |xxxxxxxxxxxxx |xxxxxxxxxxxxx |    358760399 |    358760396 |    358760398 |
bpred_bimod.jr_hits                           8553 |         8553 |         8553 |xxxxxxxxxxxxx |xxxxxxxxxxxxx |xxxxxxxxxxxxx |xxxxxxxxxxxxx |        16745 |        16745 |        16745 |xxxxxxxxxxxxx |xxxxxxxxxxxxx |xxxxxxxxxxxxx |xxxxxxxxxxxxx |        33129 |        33129 |        33129 |xxxxxxxxxxxxx |xxxxxxxxxxxxx |xxxxxxxxxxxxx |xxxxxxxxxxxxx |        65897 |        65897 |        65897 |xxxxxxxxxxxxx |xxxxxxxxxxxxx |xxxxxxxxxxxxx |xxxxxxxxxxxxx |       131433 |       131433 |       131433 |
bpred_bimod.jr_seen                           8554 |         8554 |         8554 |xxxxxxxxxxxxx |xxxxxxxxxxxxx |xxxxxxxxxxxxx |xxxxxxxxxxxxx |        16746 |        16746 |        16746 |xxxxxxxxxxxxx |xxxxxxxxxxxxx |xxxxxxxxxxxxx |xxxxxxxxxxxxx |        33130 |        33130 |        33130 |xxxxxxxxxxxxx |xxxxxxxxxxxxx |xxxxxxxxxxxxx |xxxxxxxxxxxxx |        65898 |        65898 |        65898 |xxxxxxxxxxxxx |xxxxxxxxxxxxx |xxxxxxxxxxxxx |xxxxxxxxxxxxx |       131434 |       131434 |       131434 |
bpred_bimod.jr_non_ras_hits.PP                   0 |            0 |            0 |xxxxxxxxxxxxx |xxxxxxxxxxxxx |xxxxxxxxxxxxx |xxxxxxxxxxxxx |            0 |            0 |            0 |xxxxxxxxxxxxx |xxxxxxxxxxxxx |xxxxxxxxxxxxx |xxxxxxxxxxxxx |            0 |            0 |            0 |xxxxxxxxxxxxx |xxxxxxxxxxxxx |xxxxxxxxxxxxx |xxxxxxxxxxxxx |            0 |            0 |            0 |xxxxxxxxxxxxx |xxxxxxxxxxxxx |xxxxxxxxxxxxx |xxxxxxxxxxxxx |            0 |            0 |            0 |
bpred_bimod.jr_non_ras_seen.PP                   0 |            0 |            0 |xxxxxxxxxxxxx |xxxxxxxxxxxxx |xxxxxxxxxxxxx |xxxxxxxxxxxxx |            0 |            0 |            0 |xxxxxxxxxxxxx |xxxxxxxxxxxxx |xxxxxxxxxxxxx |xxxxxxxxxxxxx |            0 |            0 |            0 |xxxxxxxxxxxxx |xxxxxxxxxxxxx |xxxxxxxxxxxxx |xxxxxxxxxxxxx |            0 |            0 |            0 |xxxxxxxxxxxxx |xxxxxxxxxxxxx |xxxxxxxxxxxxx |xxxxxxxxxxxxx |            0 |            0 |            0 |
bpred_bimod.bpred_addr_rate                 0.8225 |       0.8225 |       0.8225 |xxxxxxxxxxxxx |xxxxxxxxxxxxx |xxxxxxxxxxxxx |xxxxxxxxxxxxx |       0.8215 |       0.8215 |       0.8215 |xxxxxxxxxxxxx |xxxxxxxxxxxxx |xxxxxxxxxxxxx |xxxxxxxxxxxxx |       0.8197 |       0.8197 |       0.8197 |xxxxxxxxxxxxx |xxxxxxxxxxxxx |xxxxxxxxxxxxx |xxxxxxxxxxxxx |       0.8225 |       0.8225 |       0.8225 |xxxxxxxxxxxxx |xxxxxxxxxxxxx |xxxxxxxxxxxxx |xxxxxxxxxxxxx |       0.8218 |       0.8218 |       0.8218 |
bpred_bimod.bpred_dir_rate                  0.8225 |       0.8225 |       0.8225 |xxxxxxxxxxxxx |xxxxxxxxxxxxx |xxxxxxxxxxxxx |xxxxxxxxxxxxx |       0.8215 |       0.8215 |       0.8215 |xxxxxxxxxxxxx |xxxxxxxxxxxxx |xxxxxxxxxxxxx |xxxxxxxxxxxxx |       0.8197 |       0.8197 |       0.8197 |xxxxxxxxxxxxx |xxxxxxxxxxxxx |xxxxxxxxxxxxx |xxxxxxxxxxxxx |       0.8225 |       0.8225 |       0.8225 |xxxxxxxxxxxxx |xxxxxxxxxxxxx |xxxxxxxxxxxxx |xxxxxxxxxxxxx |       0.8218 |       0.8218 |       0.8218 |
bpred_bimod.bpred_jr_rate                   0.9999 |       0.9999 |       0.9999 |xxxxxxxxxxxxx |xxxxxxxxxxxxx |xxxxxxxxxxxxx |xxxxxxxxxxxxx |       0.9999 |       0.9999 |       0.9999 |xxxxxxxxxxxxx |xxxxxxxxxxxxx |xxxxxxxxxxxxx |xxxxxxxxxxxxx |       1.0000 |       1.0000 |       1.0000 |xxxxxxxxxxxxx |xxxxxxxxxxxxx |xxxxxxxxxxxxx |xxxxxxxxxxxxx |       1.0000 |       1.0000 |       1.0000 |xxxxxxxxxxxxx |xxxxxxxxxxxxx |xxxxxxxxxxxxx |xxxxxxxxxxxxx |       1.0000 |       1.0000 |       1.0000 |
bpred_bimod.bpred_jr_non_ras_rate.PP       <error: |      <error: |      <error: |xxxxxxxxxxxxx |xxxxxxxxxxxxx |xxxxxxxxxxxxx |xxxxxxxxxxxxx |      <error: |      <error: |      <error: |xxxxxxxxxxxxx |xxxxxxxxxxxxx |xxxxxxxxxxxxx |xxxxxxxxxxxxx |      <error: |      <error: |      <error: |xxxxxxxxxxxxx |xxxxxxxxxxxxx |xxxxxxxxxxxxx |xxxxxxxxxxxxx |      <error: |      <error: |      <error: |xxxxxxxxxxxxx |xxxxxxxxxxxxx |xxxxxxxxxxxxx |xxxxxxxxxxxxx |      <error: |      <error: |      <error: |
bpred_bimod.retstack_pushes                   8556 |         8556 |         8556 |xxxxxxxxxxxxx |xxxxxxxxxxxxx |xxxxxxxxxxxxx |xxxxxxxxxxxxx |        16748 |        16748 |        16748 |xxxxxxxxxxxxx |xxxxxxxxxxxxx |xxxxxxxxxxxxx |xxxxxxxxxxxxx |        33132 |        33132 |        33132 |xxxxxxxxxxxxx |xxxxxxxxxxxxx |xxxxxxxxxxxxx |xxxxxxxxxxxxx |        65900 |        65900 |        65900 |xxxxxxxxxxxxx |xxxxxxxxxxxxx |xxxxxxxxxxxxx |xxxxxxxxxxxxx |       131436 |       131436 |       131436 |
bpred_bimod.retstack_pops                     8554 |         8554 |         8554 |xxxxxxxxxxxxx |xxxxxxxxxxxxx |xxxxxxxxxxxxx |xxxxxxxxxxxxx |        16746 |        16746 |        16746 |xxxxxxxxxxxxx |xxxxxxxxxxxxx |xxxxxxxxxxxxx |xxxxxxxxxxxxx |        33130 |        33130 |        33130 |xxxxxxxxxxxxx |xxxxxxxxxxxxx |xxxxxxxxxxxxx |xxxxxxxxxxxxx |        65898 |        65898 |        65898 |xxxxxxxxxxxxx |xxxxxxxxxxxxx |xxxxxxxxxxxxx |xxxxxxxxxxxxx |       131434 |       131434 |       131434 |
bpred_bimod.used_ras.PP                       8554 |         8554 |         8554 |xxxxxxxxxxxxx |xxxxxxxxxxxxx |xxxxxxxxxxxxx |xxxxxxxxxxxxx |        16746 |        16746 |        16746 |xxxxxxxxxxxxx |xxxxxxxxxxxxx |xxxxxxxxxxxxx |xxxxxxxxxxxxx |        33130 |        33130 |        33130 |xxxxxxxxxxxxx |xxxxxxxxxxxxx |xxxxxxxxxxxxx |xxxxxxxxxxxxx |        65898 |        65898 |        65898 |xxxxxxxxxxxxx |xxxxxxxxxxxxx |xxxxxxxxxxxxx |xxxxxxxxxxxxx |       131434 |       131434 |       131434 |
bpred_bimod.ras_hits.PP                       8553 |         8553 |         8553 |xxxxxxxxxxxxx |xxxxxxxxxxxxx |xxxxxxxxxxxxx |xxxxxxxxxxxxx |        16745 |        16745 |        16745 |xxxxxxxxxxxxx |xxxxxxxxxxxxx |xxxxxxxxxxxxx |xxxxxxxxxxxxx |        33129 |        33129 |        33129 |xxxxxxxxxxxxx |xxxxxxxxxxxxx |xxxxxxxxxxxxx |xxxxxxxxxxxxx |        65897 |        65897 |        65897 |xxxxxxxxxxxxx |xxxxxxxxxxxxx |xxxxxxxxxxxxx |xxxxxxxxxxxxx |       131433 |       131433 |       131433 |
bpred_bimod.ras_rate.PP                     0.9999 |       0.9999 |       0.9999 |xxxxxxxxxxxxx |xxxxxxxxxxxxx |xxxxxxxxxxxxx |xxxxxxxxxxxxx |       0.9999 |       0.9999 |       0.9999 |xxxxxxxxxxxxx |xxxxxxxxxxxxx |xxxxxxxxxxxxx |xxxxxxxxxxxxx |       1.0000 |       1.0000 |       1.0000 |xxxxxxxxxxxxx |xxxxxxxxxxxxx |xxxxxxxxxxxxx |xxxxxxxxxxxxx |       1.0000 |       1.0000 |       1.0000 |xxxxxxxxxxxxx |xxxxxxxxxxxxx |xxxxxxxxxxxxx |xxxxxxxxxxxxx |       1.0000 |       1.0000 |       1.0000 |
bpred_2lev.lookups                   xxxxxxxxxxxxx |xxxxxxxxxxxxx |xxxxxxxxxxxxx |      7995803 |      7995803 |      7995803 |      7995803 |xxxxxxxxxxxxx |xxxxxxxxxxxxx |xxxxxxxxxxxxx |     32110660 |     32110660 |     32110660 |     32110660 |xxxxxxxxxxxxx |xxxxxxxxxxxxx |xxxxxxxxxxxxx |    124680572 |    124680572 |    124680572 |    124680572 |xxxxxxxxxxxxx |xxxxxxxxxxxxx |xxxxxxxxxxxxx |    502263436 |    502263436 |    502263436 |    502263436 |xxxxxxxxxxxxx |xxxxxxxxxxxxx |xxxxxxxxxxxxx |   2012883053 |   2012883053 |   2012883053 |   2012883053 |
bpred_2lev.updates                   xxxxxxxxxxxxx |xxxxxxxxxxxxx |xxxxxxxxxxxxx |      7995803 |      7995803 |      7995803 |      7995803 |xxxxxxxxxxxxx |xxxxxxxxxxxxx |xxxxxxxxxxxxx |     32110660 |     32110660 |     32110660 |     32110660 |xxxxxxxxxxxxx |xxxxxxxxxxxxx |xxxxxxxxxxxxx |    124680572 |    124680572 |    124680572 |    124680572 |xxxxxxxxxxxxx |xxxxxxxxxxxxx |xxxxxxxxxxxxx |    502263436 |    502263436 |    502263436 |    502263436 |xxxxxxxxxxxxx |xxxxxxxxxxxxx |xxxxxxxxxxxxx |   2012883053 |   2012883053 |   2012883053 |   2012883053 |
bpred_2lev.addr_hits                 xxxxxxxxxxxxx |xxxxxxxxxxxxx |xxxxxxxxxxxxx |      6027909 |      6226019 |      6373300 |      6451503 |xxxxxxxxxxxxx |xxxxxxxxxxxxx |xxxxxxxxxxxxx |     24443175 |     25048878 |     25486367 |     25696192 |xxxxxxxxxxxxx |xxxxxxxxxxxxx |xxxxxxxxxxxxx |     95722519 |     97703070 |     99021005 |     99392768 |xxxxxxxxxxxxx |xxxxxxxxxxxxx |xxxxxxxxxxxxx |    390929574 |    398121776 |    402848025 |    403521613 |xxxxxxxxxxxxx |xxxxxxxxxxxxx |xxxxxxxxxxxxx |   1574955413 |   1604205973 |   1623293959 |   1624014685 |
bpred_2lev.dir_hits                  xxxxxxxxxxxxx |xxxxxxxxxxxxx |xxxxxxxxxxxxx |      6028033 |      6226137 |      6373414 |      6451607 |xxxxxxxxxxxxx |xxxxxxxxxxxxx |xxxxxxxxxxxxx |     24443306 |     25049007 |     25486487 |     25696304 |xxxxxxxxxxxxx |xxxxxxxxxxxxx |xxxxxxxxxxxxx |     95722638 |     97703191 |     99021117 |     99392873 |xxxxxxxxxxxxx |xxxxxxxxxxxxx |xxxxxxxxxxxxx |    390929698 |    398121906 |    402848143 |    403521720 |xxxxxxxxxxxxx |xxxxxxxxxxxxx |xxxxxxxxxxxxx |   1574955545 |   1604206096 |   1623294072 |   1624014788 |
bpred_2lev.misses                    xxxxxxxxxxxxx |xxxxxxxxxxxxx |xxxxxxxxxxxxx |      1967770 |      1769666 |      1622389 |      1544196 |xxxxxxxxxxxxx |xxxxxxxxxxxxx |xxxxxxxxxxxxx |      7667354 |      7061653 |      6624173 |      6414356 |xxxxxxxxxxxxx |xxxxxxxxxxxxx |xxxxxxxxxxxxx |     28957934 |     26977381 |     25659455 |     25287699 |xxxxxxxxxxxxx |xxxxxxxxxxxxx |xxxxxxxxxxxxx |    111333738 |    104141530 |     99415293 |     98741716 |xxxxxxxxxxxxx |xxxxxxxxxxxxx |xxxxxxxxxxxxx |    437927508 |    408676957 |    389588981 |    388868265 |
bpred_2lev.jr_hits                   xxxxxxxxxxxxx |xxxxxxxxxxxxx |xxxxxxxxxxxxx |         8553 |         8553 |         8553 |         8553 |xxxxxxxxxxxxx |xxxxxxxxxxxxx |xxxxxxxxxxxxx |        16745 |        16745 |        16745 |        16745 |xxxxxxxxxxxxx |xxxxxxxxxxxxx |xxxxxxxxxxxxx |        33129 |        33129 |        33129 |        33129 |xxxxxxxxxxxxx |xxxxxxxxxxxxx |xxxxxxxxxxxxx |        65897 |        65897 |        65897 |        65897 |xxxxxxxxxxxxx |xxxxxxxxxxxxx |xxxxxxxxxxxxx |       131433 |       131433 |       131433 |       131433 |
bpred_2lev.jr_seen                   xxxxxxxxxxxxx |xxxxxxxxxxxxx |xxxxxxxxxxxxx |         8554 |         8554 |         8554 |         8554 |xxxxxxxxxxxxx |xxxxxxxxxxxxx |xxxxxxxxxxxxx |        16746 |        16746 |        16746 |        16746 |xxxxxxxxxxxxx |xxxxxxxxxxxxx |xxxxxxxxxxxxx |        33130 |        33130 |        33130 |        33130 |xxxxxxxxxxxxx |xxxxxxxxxxxxx |xxxxxxxxxxxxx |        65898 |        65898 |        65898 |        65898 |xxxxxxxxxxxxx |xxxxxxxxxxxxx |xxxxxxxxxxxxx |       131434 |       131434 |       131434 |       131434 |
bpred_2lev.jr_non_ras_hits.PP        xxxxxxxxxxxxx |xxxxxxxxxxxxx |xxxxxxxxxxxxx |            0 |            0 |            0 |            0 |xxxxxxxxxxxxx |xxxxxxxxxxxxx |xxxxxxxxxxxxx |            0 |            0 |            0 |            0 |xxxxxxxxxxxxx |xxxxxxxxxxxxx |xxxxxxxxxxxxx |            0 |            0 |            0 |            0 |xxxxxxxxxxxxx |xxxxxxxxxxxxx |xxxxxxxxxxxxx |            0 |            0 |            0 |            0 |xxxxxxxxxxxxx |xxxxxxxxxxxxx |xxxxxxxxxxxxx |            0 |            0 |            0 |            0 |
bpred_2lev.jr_non_ras_seen.PP        xxxxxxxxxxxxx |xxxxxxxxxxxxx |xxxxxxxxxxxxx |            0 |            0 |            0 |            0 |xxxxxxxxxxxxx |xxxxxxxxxxxxx |xxxxxxxxxxxxx |            0 |            0 |            0 |            0 |xxxxxxxxxxxxx |xxxxxxxxxxxxx |xxxxxxxxxxxxx |            0 |            0 |            0 |            0 |xxxxxxxxxxxxx |xxxxxxxxxxxxx |xxxxxxxxxxxxx |            0 |            0 |            0 |            0 |xxxxxxxxxxxxx |xxxxxxxxxxxxx |xxxxxxxxxxxxx |            0 |            0 |            0 |            0 |
bpred_2lev.bpred_addr_rate           xxxxxxxxxxxxx |xxxxxxxxxxxxx |xxxxxxxxxxxxx |       0.7539 |       0.7787 |       0.7971 |       0.8069 |xxxxxxxxxxxxx |xxxxxxxxxxxxx |xxxxxxxxxxxxx |       0.7612 |       0.7801 |       0.7937 |       0.8002 |xxxxxxxxxxxxx |xxxxxxxxxxxxx |xxxxxxxxxxxxx |       0.7677 |       0.7836 |       0.7942 |       0.7972 |xxxxxxxxxxxxx |xxxxxxxxxxxxx |xxxxxxxxxxxxx |       0.7783 |       0.7927 |       0.8021 |       0.8034 |xxxxxxxxxxxxx |xxxxxxxxxxxxx |xxxxxxxxxxxxx |       0.7824 |       0.7970 |       0.8065 |       0.8068 |
bpred_2lev.bpred_dir_rate            xxxxxxxxxxxxx |xxxxxxxxxxxxx |xxxxxxxxxxxxx |       0.7539 |       0.7787 |       0.7971 |       0.8069 |xxxxxxxxxxxxx |xxxxxxxxxxxxx |xxxxxxxxxxxxx |       0.7612 |       0.7801 |       0.7937 |       0.8002 |xxxxxxxxxxxxx |xxxxxxxxxxxxx |xxxxxxxxxxxxx |       0.7677 |       0.7836 |       0.7942 |       0.7972 |xxxxxxxxxxxxx |xxxxxxxxxxxxx |xxxxxxxxxxxxx |       0.7783 |       0.7927 |       0.8021 |       0.8034 |xxxxxxxxxxxxx |xxxxxxxxxxxxx |xxxxxxxxxxxxx |       0.7824 |       0.7970 |       0.8065 |       0.8068 |
bpred_2lev.bpred_jr_rate             xxxxxxxxxxxxx |xxxxxxxxxxxxx |xxxxxxxxxxxxx |       0.9999 |       0.9999 |       0.9999 |       0.9999 |xxxxxxxxxxxxx |xxxxxxxxxxxxx |xxxxxxxxxxxxx |       0.9999 |       0.9999 |       0.9999 |       0.9999 |xxxxxxxxxxxxx |xxxxxxxxxxxxx |xxxxxxxxxxxxx |       1.0000 |       1.0000 |       1.0000 |       1.0000 |xxxxxxxxxxxxx |xxxxxxxxxxxxx |xxxxxxxxxxxxx |       1.0000 |       1.0000 |       1.0000 |       1.0000 |xxxxxxxxxxxxx |xxxxxxxxxxxxx |xxxxxxxxxxxxx |       1.0000 |       1.0000 |       1.0000 |       1.0000 |
bpred_2lev.bpred_jr_non_ras_rate.PP  xxxxxxxxxxxxx |xxxxxxxxxxxxx |xxxxxxxxxxxxx |      <error: |      <error: |      <error: |      <error: |xxxxxxxxxxxxx |xxxxxxxxxxxxx |xxxxxxxxxxxxx |      <error: |      <error: |      <error: |      <error: |xxxxxxxxxxxxx |xxxxxxxxxxxxx |xxxxxxxxxxxxx |      <error: |      <error: |      <error: |      <error: |xxxxxxxxxxxxx |xxxxxxxxxxxxx |xxxxxxxxxxxxx |      <error: |      <error: |      <error: |      <error: |xxxxxxxxxxxxx |xxxxxxxxxxxxx |xxxxxxxxxxxxx |      <error: |      <error: |      <error: |      <error: |
bpred_2lev.retstack_pushes           xxxxxxxxxxxxx |xxxxxxxxxxxxx |xxxxxxxxxxxxx |         8556 |         8556 |         8556 |         8556 |xxxxxxxxxxxxx |xxxxxxxxxxxxx |xxxxxxxxxxxxx |        16748 |        16748 |        16748 |        16748 |xxxxxxxxxxxxx |xxxxxxxxxxxxx |xxxxxxxxxxxxx |        33132 |        33132 |        33132 |        33132 |xxxxxxxxxxxxx |xxxxxxxxxxxxx |xxxxxxxxxxxxx |        65900 |        65900 |        65900 |        65900 |xxxxxxxxxxxxx |xxxxxxxxxxxxx |xxxxxxxxxxxxx |       131436 |       131436 |       131436 |       131436 |
bpred_2lev.retstack_pops             xxxxxxxxxxxxx |xxxxxxxxxxxxx |xxxxxxxxxxxxx |         8554 |         8554 |         8554 |         8554 |xxxxxxxxxxxxx |xxxxxxxxxxxxx |xxxxxxxxxxxxx |        16746 |        16746 |        16746 |        16746 |xxxxxxxxxxxxx |xxxxxxxxxxxxx |xxxxxxxxxxxxx |        33130 |        33130 |        33130 |        33130 |xxxxxxxxxxxxx |xxxxxxxxxxxxx |xxxxxxxxxxxxx |        65898 |        65898 |        65898 |        65898 |xxxxxxxxxxxxx |xxxxxxxxxxxxx |xxxxxxxxxxxxx |       131434 |       131434 |       131434 |       131434 |
bpred_2lev.used_ras.PP               xxxxxxxxxxxxx |xxxxxxxxxxxxx |xxxxxxxxxxxxx |         8554 |         8554 |         8554 |         8554 |xxxxxxxxxxxxx |xxxxxxxxxxxxx |xxxxxxxxxxxxx |        16746 |        16746 |        16746 |        16746 |xxxxxxxxxxxxx |xxxxxxxxxxxxx |xxxxxxxxxxxxx |        33130 |        33130 |        33130 |        33130 |xxxxxxxxxxxxx |xxxxxxxxxxxxx |xxxxxxxxxxxxx |        65898 |        65898 |        65898 |        65898 |xxxxxxxxxxxxx |xxxxxxxxxxxxx |xxxxxxxxxxxxx |       131434 |       131434 |       131434 |       131434 |
bpred_2lev.ras_hits.PP               xxxxxxxxxxxxx |xxxxxxxxxxxxx |xxxxxxxxxxxxx |         8553 |         8553 |         8553 |         8553 |xxxxxxxxxxxxx |xxxxxxxxxxxxx |xxxxxxxxxxxxx |        16745 |        16745 |        16745 |        16745 |xxxxxxxxxxxxx |xxxxxxxxxxxxx |xxxxxxxxxxxxx |        33129 |        33129 |        33129 |        33129 |xxxxxxxxxxxxx |xxxxxxxxxxxxx |xxxxxxxxxxxxx |        65897 |        65897 |        65897 |        65897 |xxxxxxxxxxxxx |xxxxxxxxxxxxx |xxxxxxxxxxxxx |       131433 |       131433 |       131433 |       131433 |
bpred_2lev.ras_rate.PP               xxxxxxxxxxxxx |xxxxxxxxxxxxx |xxxxxxxxxxxxx |       0.9999 |       0.9999 |       0.9999 |       0.9999 |xxxxxxxxxxxxx |xxxxxxxxxxxxx |xxxxxxxxxxxxx |       0.9999 |       0.9999 |       0.9999 |       0.9999 |xxxxxxxxxxxxx |xxxxxxxxxxxxx |xxxxxxxxxxxxx |       1.0000 |       1.0000 |       1.0000 |       1.0000 |xxxxxxxxxxxxx |xxxxxxxxxxxxx |xxxxxxxxxxxxx |       1.0000 |       1.0000 |       1.0000 |       1.0000 |xxxxxxxxxxxxx |xxxxxxxxxxxxx |xxxxxxxxxxxxx |       1.0000 |       1.0000 |       1.0000 |       1.0000 |

Command list: 
	sslittle-na-sstrix-gcc -Wall -O3 -funroll-loops -finline-functions  -DRANDOM_SIZE=4096 -DSEED=0 -DSORT=on2_shakersort on2_shakersort1209153610.c simpleMain.c -o on2_shakersort2076856483
	sim-cache -cache:dl1 dl1:256:32:1:l -cache:dl2 dl2:131072:32:1:l -cache:il1 il1:256:32:1:l -cache:il2 dl2 on2_shakersort2076856483
	sim-cache -cache:dl1 dl1:256:32:1:l -cache:dl2 dl2:65536:32:1:l -cache:il1 il1:256:32:1:l -cache:il2 dl2 on2_shakersort2076856483
	sim-cache -cache:dl1 dl1:1:32:256:l -cache:dl2 dl2:1:32:131072:l -cache:il1 il1:1:32:256:l -cache:il2 dl2 on2_shakersort2076856483
	sim-cache -cache:dl1 dl1:1:32:256:l -cache:dl2 dl2:1:32:65536:l -cache:il1 il1:1:32:256:l -cache:il2 dl2 on2_shakersort2076856483
	sim-bpred -bpred bimod -bpred:bimod 512 on2_shakersort2076856483
	sim-bpred -bpred bimod -bpred:bimod 1024 on2_shakersort2076856483
	sim-bpred -bpred bimod -bpred:bimod 2048 on2_shakersort2076856483
	sim-bpred -bpred 2lev -bpred:2lev 1 512 10 1 on2_shakersort2076856483
	sim-bpred -bpred 2lev -bpred:2lev 1 1024 10 1 on2_shakersort2076856483
	sim-bpred -bpred 2lev -bpred:2lev 1 2048 10 1 on2_shakersort2076856483
	sim-bpred -bpred 2lev -bpred:2lev 1 4096 10 1 on2_shakersort2076856483
	sslittle-na-sstrix-gcc -Wall -O3 -funroll-loops -finline-functions  -DRANDOM_SIZE=8192 -DSEED=0 -DSORT=on2_shakersort on2_shakersort1209153610.c simpleMain.c -o on2_shakersort2076856483
	sim-cache -cache:dl1 dl1:256:32:1:l -cache:dl2 dl2:131072:32:1:l -cache:il1 il1:256:32:1:l -cache:il2 dl2 on2_shakersort2076856483
	sim-cache -cache:dl1 dl1:256:32:1:l -cache:dl2 dl2:65536:32:1:l -cache:il1 il1:256:32:1:l -cache:il2 dl2 on2_shakersort2076856483
	sim-cache -cache:dl1 dl1:1:32:256:l -cache:dl2 dl2:1:32:131072:l -cache:il1 il1:1:32:256:l -cache:il2 dl2 on2_shakersort2076856483
	sim-cache -cache:dl1 dl1:1:32:256:l -cache:dl2 dl2:1:32:65536:l -cache:il1 il1:1:32:256:l -cache:il2 dl2 on2_shakersort2076856483
	sim-bpred -bpred bimod -bpred:bimod 512 on2_shakersort2076856483
	sim-bpred -bpred bimod -bpred:bimod 1024 on2_shakersort2076856483
	sim-bpred -bpred bimod -bpred:bimod 2048 on2_shakersort2076856483
	sim-bpred -bpred 2lev -bpred:2lev 1 512 10 1 on2_shakersort2076856483
	sim-bpred -bpred 2lev -bpred:2lev 1 1024 10 1 on2_shakersort2076856483
	sim-bpred -bpred 2lev -bpred:2lev 1 2048 10 1 on2_shakersort2076856483
	sim-bpred -bpred 2lev -bpred:2lev 1 4096 10 1 on2_shakersort2076856483
	sslittle-na-sstrix-gcc -Wall -O3 -funroll-loops -finline-functions  -DRANDOM_SIZE=16384 -DSEED=0 -DSORT=on2_shakersort on2_shakersort1209153610.c simpleMain.c -o on2_shakersort2076856483
	sim-cache -cache:dl1 dl1:256:32:1:l -cache:dl2 dl2:131072:32:1:l -cache:il1 il1:256:32:1:l -cache:il2 dl2 on2_shakersort2076856483
	sim-cache -cache:dl1 dl1:256:32:1:l -cache:dl2 dl2:65536:32:1:l -cache:il1 il1:256:32:1:l -cache:il2 dl2 on2_shakersort2076856483
	sim-cache -cache:dl1 dl1:1:32:256:l -cache:dl2 dl2:1:32:131072:l -cache:il1 il1:1:32:256:l -cache:il2 dl2 on2_shakersort2076856483
	sim-cache -cache:dl1 dl1:1:32:256:l -cache:dl2 dl2:1:32:65536:l -cache:il1 il1:1:32:256:l -cache:il2 dl2 on2_shakersort2076856483
	sim-bpred -bpred bimod -bpred:bimod 512 on2_shakersort2076856483
	sim-bpred -bpred bimod -bpred:bimod 1024 on2_shakersort2076856483
	sim-bpred -bpred bimod -bpred:bimod 2048 on2_shakersort2076856483
	sim-bpred -bpred 2lev -bpred:2lev 1 512 10 1 on2_shakersort2076856483
	sim-bpred -bpred 2lev -bpred:2lev 1 1024 10 1 on2_shakersort2076856483
	sim-bpred -bpred 2lev -bpred:2lev 1 2048 10 1 on2_shakersort2076856483
	sim-bpred -bpred 2lev -bpred:2lev 1 4096 10 1 on2_shakersort2076856483
	sslittle-na-sstrix-gcc -Wall -O3 -funroll-loops -finline-functions  -DRANDOM_SIZE=32768 -DSEED=0 -DSORT=on2_shakersort on2_shakersort1209153610.c simpleMain.c -o on2_shakersort2076856483
	sim-cache -cache:dl1 dl1:256:32:1:l -cache:dl2 dl2:131072:32:1:l -cache:il1 il1:256:32:1:l -cache:il2 dl2 on2_shakersort2076856483
	sim-cache -cache:dl1 dl1:256:32:1:l -cache:dl2 dl2:65536:32:1:l -cache:il1 il1:256:32:1:l -cache:il2 dl2 on2_shakersort2076856483
	sim-cache -cache:dl1 dl1:1:32:256:l -cache:dl2 dl2:1:32:131072:l -cache:il1 il1:1:32:256:l -cache:il2 dl2 on2_shakersort2076856483
	sim-cache -cache:dl1 dl1:1:32:256:l -cache:dl2 dl2:1:32:65536:l -cache:il1 il1:1:32:256:l -cache:il2 dl2 on2_shakersort2076856483
	sim-bpred -bpred bimod -bpred:bimod 512 on2_shakersort2076856483
	sim-bpred -bpred bimod -bpred:bimod 1024 on2_shakersort2076856483
	sim-bpred -bpred bimod -bpred:bimod 2048 on2_shakersort2076856483
	sim-bpred -bpred 2lev -bpred:2lev 1 512 10 1 on2_shakersort2076856483
	sim-bpred -bpred 2lev -bpred:2lev 1 1024 10 1 on2_shakersort2076856483
	sim-bpred -bpred 2lev -bpred:2lev 1 2048 10 1 on2_shakersort2076856483
	sim-bpred -bpred 2lev -bpred:2lev 1 4096 10 1 on2_shakersort2076856483
	sslittle-na-sstrix-gcc -Wall -O3 -funroll-loops -finline-functions  -DRANDOM_SIZE=65536 -DSEED=0 -DSORT=on2_shakersort on2_shakersort1209153610.c simpleMain.c -o on2_shakersort2076856483
	sim-cache -cache:dl1 dl1:256:32:1:l -cache:dl2 dl2:131072:32:1:l -cache:il1 il1:256:32:1:l -cache:il2 dl2 on2_shakersort2076856483
	sim-cache -cache:dl1 dl1:256:32:1:l -cache:dl2 dl2:65536:32:1:l -cache:il1 il1:256:32:1:l -cache:il2 dl2 on2_shakersort2076856483
	sim-cache -cache:dl1 dl1:1:32:256:l -cache:dl2 dl2:1:32:131072:l -cache:il1 il1:1:32:256:l -cache:il2 dl2 on2_shakersort2076856483
	sim-cache -cache:dl1 dl1:1:32:256:l -cache:dl2 dl2:1:32:65536:l -cache:il1 il1:1:32:256:l -cache:il2 dl2 on2_shakersort2076856483
	sim-bpred -bpred bimod -bpred:bimod 512 on2_shakersort2076856483
	sim-bpred -bpred bimod -bpred:bimod 1024 on2_shakersort2076856483
	sim-bpred -bpred bimod -bpred:bimod 2048 on2_shakersort2076856483
	sim-bpred -bpred 2lev -bpred:2lev 1 512 10 1 on2_shakersort2076856483
	sim-bpred -bpred 2lev -bpred:2lev 1 1024 10 1 on2_shakersort2076856483
	sim-bpred -bpred 2lev -bpred:2lev 1 2048 10 1 on2_shakersort2076856483
	sim-bpred -bpred 2lev -bpred:2lev 1 4096 10 1 on2_shakersort2076856483
