Thu Mar 25 20:55:53 2004
Run as: "./simple -c  tiled_mergesort"
-------------------------------------------------------------------------------------------------
sim-cache                                     4096 |         4096 |         4096 |         4096 |         8192 |         8192 |         8192 |         8192 |        16384 |        16384 |        16384 |        16384 |        32768 |        32768 |        32768 |        32768 |        65536 |        65536 |        65536 |        65536 |       131072 |       131072 |       131072 |       131072 |       262144 |       262144 |       262144 |       262144 |       524288 |       524288 |       524288 |       524288 |      1048576 |      1048576 |      1048576 |      1048576 |      2097152 |      2097152 |      2097152 |      2097152 |      4194304 |      4194304 |      4194304 |      4194304 |
-cache:dl1 dl1:256:32:1:l -cache:dl2 dl2:131072:32:1:l -cache:il1 il1:256:32:1:l -cache:il2 dl2
-cache:dl1 dl1:256:32:1:l -cache:dl2 dl2:65536:32:1:l -cache:il1 il1:256:32:1:l -cache:il2 dl2
-cache:dl1 dl1:1:32:256:l -cache:dl2 dl2:1:32:131072:l -cache:il1 il1:1:32:256:l -cache:il2 dl2
-cache:dl1 dl1:1:32:256:l -cache:dl2 dl2:1:32:65536:l -cache:il1 il1:1:32:256:l -cache:il2 dl2
-------------------------------------------------------------------------------------------------
sim_num_insn                                889681 |       889681 |       889681 |       889681 |      1918991 |      1918991 |      1918991 |      1918991 |      4050741 |      4050741 |      4050741 |      4050741 |      8707721 |      8707721 |      8707721 |      8707721 |     18321194 |     18321194 |     18321194 |     18321194 |     39143740 |     39143740 |     39143740 |     39143740 |     81932707 |     81932707 |     81932707 |     81932707 |    173821982 |    173821982 |    173821982 |    173821982 |    362255209 |    362255209 |    362255209 |    362255209 |    764367728 |    764367728 |    764367728 |    764367728 |   1587422741 |   1587422741 |   1587422741 |   1587422741 |
sim_num_refs                                271649 |       271649 |       271649 |       271649 |       588666 |       588666 |       588666 |       588666 |      1210385 |      1210385 |      1210385 |      1210385 |      2625944 |      2625944 |      2625944 |      2625944 |      5408761 |      5408761 |      5408761 |      5408761 |     11666982 |     11666982 |     11666982 |     11666982 |     23979345 |     23979345 |     23979345 |     23979345 |     51366982 |     51366982 |     51366982 |     51366982 |    105328141 |    105328141 |    105328141 |    105328141 |    224279070 |    224279070 |    224279070 |    224279070 |    459023241 |    459023241 |    459023241 |    459023241 |
sim_elapsed_time                                 1 |            1 |           20 |           10 |            1 |            1 |           30 |           15 |            2 |            2 |           52 |           28 |            5 |            5 |          104 |           49 |           10 |           10 |          176 |           89 |           21 |           21 |          328 |          156 |           48 |           47 |          593 |          219 |           94 |           95 |          775 |          277 |          200 |          204 |         1057 |          390 |          416 |          428 |         1248 |          646 |          862 |          874 |         1663 |         1204 |
sim_inst_rate                          889681.0000 |  889681.0000 |   44484.0500 |   88968.1000 | 1918991.0000 | 1918991.0000 |   63966.3667 |  127932.7333 | 2025370.5000 | 2025370.5000 |   77898.8654 |  144669.3214 | 1741544.2000 | 1741544.2000 |   83728.0865 |  177708.5918 | 1832119.4000 | 1832119.4000 |  104097.6932 |  205856.1124 | 1863987.6190 | 1863987.6190 |  119340.6707 |  250921.4103 | 1706931.3958 | 1743249.0851 |  138166.4536 |  374121.9498 | 1849170.0213 | 1829705.0737 |  224286.4284 |  627516.1805 | 1811276.0450 | 1775760.8284 |  342720.1599 |  928859.5103 | 1837422.4231 | 1785905.9065 |  612474.1410 | 1183231.7771 | 1841557.7042 | 1816273.1590 |  954553.6627 | 1318457.4261 |
il1.accesses                                889681 |       889681 |       889681 |       889681 |      1918991 |      1918991 |      1918991 |      1918991 |      4050741 |      4050741 |      4050741 |      4050741 |      8707721 |      8707721 |      8707721 |      8707721 |     18321194 |     18321194 |     18321194 |     18321194 |     39143740 |     39143740 |     39143740 |     39143740 |     81932707 |     81932707 |     81932707 |     81932707 |    173821982 |    173821982 |    173821982 |    173821982 |    362255209 |    362255209 |    362255209 |    362255209 |    764367728 |    764367728 |    764367728 |    764367728 |   1587422741 |   1587422741 |   1587422741 |   1587422741 |
il1.hits                                    889164 |       889164 |       889218 |       889218 |      1918452 |      1918452 |      1918495 |      1918495 |      4050200 |      4050200 |      4050266 |      4050266 |      8707160 |      8707160 |      8707212 |      8707212 |     18320652 |     18320652 |     18320705 |     18320705 |     39143178 |     39143178 |     39143230 |     39143230 |     81932165 |     81932165 |     81932218 |     81932218 |    173821381 |    173821381 |    173821468 |    173821468 |    362254625 |    362254625 |    362254695 |    362254695 |    764367127 |    764367127 |    764367214 |    764367214 |   1587422157 |   1587422157 |   1587422227 |   1587422227 |
il1.misses                                     517 |          517 |          463 |          463 |          539 |          539 |          496 |          496 |          541 |          541 |          475 |          475 |          561 |          561 |          509 |          509 |          542 |          542 |          489 |          489 |          562 |          562 |          510 |          510 |          542 |          542 |          489 |          489 |          601 |          601 |          514 |          514 |          584 |          584 |          514 |          514 |          601 |          601 |          514 |          514 |          584 |          584 |          514 |          514 |
il1.replacements                               287 |          287 |          207 |          207 |          295 |          295 |          240 |          240 |          310 |          310 |          219 |          219 |          319 |          319 |          253 |          253 |          311 |          311 |          233 |          233 |          320 |          320 |          254 |          254 |          311 |          311 |          233 |          233 |          353 |          353 |          258 |          258 |          336 |          336 |          258 |          258 |          353 |          353 |          258 |          258 |          336 |          336 |          258 |          258 |
il1.writebacks                                   0 |            0 |            0 |            0 |            0 |            0 |            0 |            0 |            0 |            0 |            0 |            0 |            0 |            0 |            0 |            0 |            0 |            0 |            0 |            0 |            0 |            0 |            0 |            0 |            0 |            0 |            0 |            0 |            0 |            0 |            0 |            0 |            0 |            0 |            0 |            0 |            0 |            0 |            0 |            0 |            0 |            0 |            0 |            0 |
il1.invalidations                                0 |            0 |            0 |            0 |            0 |            0 |            0 |            0 |            0 |            0 |            0 |            0 |            0 |            0 |            0 |            0 |            0 |            0 |            0 |            0 |            0 |            0 |            0 |            0 |            0 |            0 |            0 |            0 |            0 |            0 |            0 |            0 |            0 |            0 |            0 |            0 |            0 |            0 |            0 |            0 |            0 |            0 |            0 |            0 |
il1.miss_rate                               0.0006 |       0.0006 |       0.0005 |       0.0005 |       0.0003 |       0.0003 |       0.0003 |       0.0003 |       0.0001 |       0.0001 |       0.0001 |       0.0001 |       0.0001 |       0.0001 |       0.0001 |       0.0001 |       0.0000 |       0.0000 |       0.0000 |       0.0000 |       0.0000 |       0.0000 |       0.0000 |       0.0000 |       0.0000 |       0.0000 |       0.0000 |       0.0000 |       0.0000 |       0.0000 |       0.0000 |       0.0000 |       0.0000 |       0.0000 |       0.0000 |       0.0000 |       0.0000 |       0.0000 |       0.0000 |       0.0000 |       0.0000 |       0.0000 |       0.0000 |       0.0000 |
il1.repl_rate                               0.0003 |       0.0003 |       0.0002 |       0.0002 |       0.0002 |       0.0002 |       0.0001 |       0.0001 |       0.0001 |       0.0001 |       0.0001 |       0.0001 |       0.0000 |       0.0000 |       0.0000 |       0.0000 |       0.0000 |       0.0000 |       0.0000 |       0.0000 |       0.0000 |       0.0000 |       0.0000 |       0.0000 |       0.0000 |       0.0000 |       0.0000 |       0.0000 |       0.0000 |       0.0000 |       0.0000 |       0.0000 |       0.0000 |       0.0000 |       0.0000 |       0.0000 |       0.0000 |       0.0000 |       0.0000 |       0.0000 |       0.0000 |       0.0000 |       0.0000 |       0.0000 |
il1.wb_rate                                 0.0000 |       0.0000 |       0.0000 |       0.0000 |       0.0000 |       0.0000 |       0.0000 |       0.0000 |       0.0000 |       0.0000 |       0.0000 |       0.0000 |       0.0000 |       0.0000 |       0.0000 |       0.0000 |       0.0000 |       0.0000 |       0.0000 |       0.0000 |       0.0000 |       0.0000 |       0.0000 |       0.0000 |       0.0000 |       0.0000 |       0.0000 |       0.0000 |       0.0000 |       0.0000 |       0.0000 |       0.0000 |       0.0000 |       0.0000 |       0.0000 |       0.0000 |       0.0000 |       0.0000 |       0.0000 |       0.0000 |       0.0000 |       0.0000 |       0.0000 |       0.0000 |
il1.inv_rate                                0.0000 |       0.0000 |       0.0000 |       0.0000 |       0.0000 |       0.0000 |       0.0000 |       0.0000 |       0.0000 |       0.0000 |       0.0000 |       0.0000 |       0.0000 |       0.0000 |       0.0000 |       0.0000 |       0.0000 |       0.0000 |       0.0000 |       0.0000 |       0.0000 |       0.0000 |       0.0000 |       0.0000 |       0.0000 |       0.0000 |       0.0000 |       0.0000 |       0.0000 |       0.0000 |       0.0000 |       0.0000 |       0.0000 |       0.0000 |       0.0000 |       0.0000 |       0.0000 |       0.0000 |       0.0000 |       0.0000 |       0.0000 |       0.0000 |       0.0000 |       0.0000 |
dl1.accesses                                271719 |       271719 |       271719 |       271719 |       588736 |       588736 |       588736 |       588736 |      1210455 |      1210455 |      1210455 |      1210455 |      2626014 |      2626014 |      2626014 |      2626014 |      5408831 |      5408831 |      5408831 |      5408831 |     11667052 |     11667052 |     11667052 |     11667052 |     23979415 |     23979415 |     23979415 |     23979415 |     51367052 |     51367052 |     51367052 |     51367052 |    105328211 |    105328211 |    105328211 |    105328211 |    224279140 |    224279140 |    224279140 |    224279140 |    459023311 |    459023311 |    459023311 |    459023311 |
dl1.hits                                    255747 |       255747 |       259986 |       259986 |       552840 |       552840 |       561632 |       561632 |      1138649 |      1138649 |      1156714 |      1156714 |      2466066 |      2466066 |      2502606 |      2502606 |      5087456 |      5087456 |      5162482 |      5162482 |     10956122 |     10956122 |     11109276 |     11109276 |     22550408 |     22550408 |     22864330 |     22864330 |     48230320 |     48230320 |     48874028 |     48874028 |     99029864 |     99029864 |    100343783 |    100343783 |    210577504 |    210577504 |    213262551 |    213262551 |    431516189 |    431516189 |    436990985 |    436990985 |
dl1.misses                                   15972 |        15972 |        11733 |        11733 |        35896 |        35896 |        27104 |        27104 |        71806 |        71806 |        53741 |        53741 |       159948 |       159948 |       123408 |       123408 |       321375 |       321375 |       246349 |       246349 |       710930 |       710930 |       557776 |       557776 |      1429007 |      1429007 |      1115085 |      1115085 |      3136732 |      3136732 |      2493024 |      2493024 |      6298347 |      6298347 |      4984428 |      4984428 |     13701636 |     13701636 |     11016589 |     11016589 |     27507122 |     27507122 |     22032326 |     22032326 |
dl1.replacements                             15716 |        15716 |        11477 |        11477 |        35640 |        35640 |        26848 |        26848 |        71550 |        71550 |        53485 |        53485 |       159692 |       159692 |       123152 |       123152 |       321119 |       321119 |       246093 |       246093 |       710674 |       710674 |       557520 |       557520 |      1428751 |      1428751 |      1114829 |      1114829 |      3136476 |      3136476 |      2492768 |      2492768 |      6298091 |      6298091 |      4984172 |      4984172 |     13701380 |     13701380 |     11016333 |     11016333 |     27506866 |     27506866 |     22032070 |     22032070 |
dl1.writebacks                                8416 |         8416 |         6456 |         6456 |        18662 |        18662 |        14654 |        14654 |        37413 |        37413 |        29000 |        29000 |        82640 |        82640 |        65885 |        65885 |       165575 |       165575 |       131463 |       131463 |       364541 |       364541 |       295386 |       295386 |       730980 |       730980 |       590466 |       590466 |      1598085 |      1598085 |      1312475 |      1312475 |      3201297 |      3201297 |      2623860 |      2623860 |      6941535 |      6941535 |      5771704 |      5771704 |     13908977 |     13908977 |     11543087 |     11543087 |
dl1.invalidations                                0 |            0 |            0 |            0 |            0 |            0 |            0 |            0 |            0 |            0 |            0 |            0 |            0 |            0 |            0 |            0 |            0 |            0 |            0 |            0 |            0 |            0 |            0 |            0 |            0 |            0 |            0 |            0 |            0 |            0 |            0 |            0 |            0 |            0 |            0 |            0 |            0 |            0 |            0 |            0 |            0 |            0 |            0 |            0 |
dl1.miss_rate                               0.0588 |       0.0588 |       0.0432 |       0.0432 |       0.0610 |       0.0610 |       0.0460 |       0.0460 |       0.0593 |       0.0593 |       0.0444 |       0.0444 |       0.0609 |       0.0609 |       0.0470 |       0.0470 |       0.0594 |       0.0594 |       0.0455 |       0.0455 |       0.0609 |       0.0609 |       0.0478 |       0.0478 |       0.0596 |       0.0596 |       0.0465 |       0.0465 |       0.0611 |       0.0611 |       0.0485 |       0.0485 |       0.0598 |       0.0598 |       0.0473 |       0.0473 |       0.0611 |       0.0611 |       0.0491 |       0.0491 |       0.0599 |       0.0599 |       0.0480 |       0.0480 |
dl1.repl_rate                               0.0578 |       0.0578 |       0.0422 |       0.0422 |       0.0605 |       0.0605 |       0.0456 |       0.0456 |       0.0591 |       0.0591 |       0.0442 |       0.0442 |       0.0608 |       0.0608 |       0.0469 |       0.0469 |       0.0594 |       0.0594 |       0.0455 |       0.0455 |       0.0609 |       0.0609 |       0.0478 |       0.0478 |       0.0596 |       0.0596 |       0.0465 |       0.0465 |       0.0611 |       0.0611 |       0.0485 |       0.0485 |       0.0598 |       0.0598 |       0.0473 |       0.0473 |       0.0611 |       0.0611 |       0.0491 |       0.0491 |       0.0599 |       0.0599 |       0.0480 |       0.0480 |
dl1.wb_rate                                 0.0310 |       0.0310 |       0.0238 |       0.0238 |       0.0317 |       0.0317 |       0.0249 |       0.0249 |       0.0309 |       0.0309 |       0.0240 |       0.0240 |       0.0315 |       0.0315 |       0.0251 |       0.0251 |       0.0306 |       0.0306 |       0.0243 |       0.0243 |       0.0312 |       0.0312 |       0.0253 |       0.0253 |       0.0305 |       0.0305 |       0.0246 |       0.0246 |       0.0311 |       0.0311 |       0.0256 |       0.0256 |       0.0304 |       0.0304 |       0.0249 |       0.0249 |       0.0310 |       0.0310 |       0.0257 |       0.0257 |       0.0303 |       0.0303 |       0.0251 |       0.0251 |
dl1.inv_rate                                0.0000 |       0.0000 |       0.0000 |       0.0000 |       0.0000 |       0.0000 |       0.0000 |       0.0000 |       0.0000 |       0.0000 |       0.0000 |       0.0000 |       0.0000 |       0.0000 |       0.0000 |       0.0000 |       0.0000 |       0.0000 |       0.0000 |       0.0000 |       0.0000 |       0.0000 |       0.0000 |       0.0000 |       0.0000 |       0.0000 |       0.0000 |       0.0000 |       0.0000 |       0.0000 |       0.0000 |       0.0000 |       0.0000 |       0.0000 |       0.0000 |       0.0000 |       0.0000 |       0.0000 |       0.0000 |       0.0000 |       0.0000 |       0.0000 |       0.0000 |       0.0000 |
dl2.accesses                                 24905 |        24905 |        18652 |        18652 |        55097 |        55097 |        42254 |        42254 |       109760 |       109760 |        83216 |        83216 |       243149 |       243149 |       189802 |       189802 |       487492 |       487492 |       378301 |       378301 |      1076033 |      1076033 |       853672 |       853672 |      2160529 |      2160529 |      1706040 |      1706040 |      4735418 |      4735418 |      3806013 |      3806013 |      9500228 |      9500228 |      7608802 |      7608802 |     20643772 |     20643772 |     16788807 |     16788807 |     41416683 |     41416683 |     33575927 |     33575927 |
dl2.hits                                     22959 |        22959 |        16788 |        16788 |        52103 |        52103 |        39341 |        39341 |       104732 |       104732 |        78269 |        78269 |       234004 |       234004 |       180737 |       180737 |       470174 |       470174 |       361064 |       361064 |      1042311 |      1042311 |       820030 |       820030 |      2094060 |      1186578 |      1639651 |      1543252 |      4594357 |      2561554 |      3656834 |      3169633 |      5158989 |      4950077 |      6689626 |      6346143 |     10492081 |     10491747 |     13902713 |     13224444 |     21114511 |     21113615 |     27804708 |     26456946 |
dl2.misses                                    1946 |         1946 |         1864 |         1864 |         2994 |         2994 |         2913 |         2913 |         5028 |         5028 |         4947 |         4947 |         9145 |         9145 |         9065 |         9065 |        17318 |        17318 |        17237 |        17237 |        33722 |        33722 |        33642 |        33642 |        66469 |       973951 |        66389 |       162788 |       141061 |      2173864 |       149179 |       636380 |      4341239 |      4550151 |       919176 |      1262659 |     10151691 |     10152025 |      2886094 |      3564363 |     20302172 |     20303068 |      5771219 |      7118981 |
dl2.replacements                               309 |          309 |            0 |            0 |          332 |          332 |            0 |            0 |          312 |          312 |            0 |            0 |          332 |          332 |            0 |            0 |          314 |          314 |            0 |            0 |          333 |          333 |            0 |            0 |          313 |       939125 |            0 |        97252 |        11055 |      2108328 |        18107 |       570844 |      4210167 |      4484615 |       788104 |      1197123 |     10020619 |     10086489 |      2755022 |      3498827 |     20171100 |     20237532 |      5640147 |      7053445 |
dl2.writebacks                                 166 |          166 |            0 |            0 |          189 |          189 |            0 |            0 |          171 |          171 |            0 |            0 |          191 |          191 |            0 |            0 |          172 |          172 |            0 |            0 |          192 |          192 |            0 |            0 |          172 |       511366 |            0 |        96984 |         8786 |      1124983 |        17763 |       463995 |      2331034 |      2457835 |       591041 |       951049 |      5395122 |      5460795 |      1771459 |      2450181 |     10961726 |     11005771 |      3608005 |      4923922 |
dl2.invalidations                                0 |            0 |            0 |            0 |            0 |            0 |            0 |            0 |            0 |            0 |            0 |            0 |            0 |            0 |            0 |            0 |            0 |            0 |            0 |            0 |            0 |            0 |            0 |            0 |            0 |            0 |            0 |            0 |            0 |            0 |            0 |            0 |            0 |            0 |            0 |            0 |            0 |            0 |            0 |            0 |            0 |            0 |            0 |            0 |
dl2.miss_rate                               0.0781 |       0.0781 |       0.0999 |       0.0999 |       0.0543 |       0.0543 |       0.0689 |       0.0689 |       0.0458 |       0.0458 |       0.0594 |       0.0594 |       0.0376 |       0.0376 |       0.0478 |       0.0478 |       0.0355 |       0.0355 |       0.0456 |       0.0456 |       0.0313 |       0.0313 |       0.0394 |       0.0394 |       0.0308 |       0.4508 |       0.0389 |       0.0954 |       0.0298 |       0.4591 |       0.0392 |       0.1672 |       0.4570 |       0.4790 |       0.1208 |       0.1659 |       0.4918 |       0.4918 |       0.1719 |       0.2123 |       0.4902 |       0.4902 |       0.1719 |       0.2120 |
dl2.repl_rate                               0.0124 |       0.0124 |       0.0000 |       0.0000 |       0.0060 |       0.0060 |       0.0000 |       0.0000 |       0.0028 |       0.0028 |       0.0000 |       0.0000 |       0.0014 |       0.0014 |       0.0000 |       0.0000 |       0.0006 |       0.0006 |       0.0000 |       0.0000 |       0.0003 |       0.0003 |       0.0000 |       0.0000 |       0.0001 |       0.4347 |       0.0000 |       0.0570 |       0.0023 |       0.4452 |       0.0048 |       0.1500 |       0.4432 |       0.4721 |       0.1036 |       0.1573 |       0.4854 |       0.4886 |       0.1641 |       0.2084 |       0.4870 |       0.4886 |       0.1680 |       0.2101 |
dl2.wb_rate                                 0.0067 |       0.0067 |       0.0000 |       0.0000 |       0.0034 |       0.0034 |       0.0000 |       0.0000 |       0.0016 |       0.0016 |       0.0000 |       0.0000 |       0.0008 |       0.0008 |       0.0000 |       0.0000 |       0.0004 |       0.0004 |       0.0000 |       0.0000 |       0.0002 |       0.0002 |       0.0000 |       0.0000 |       0.0001 |       0.2367 |       0.0000 |       0.0568 |       0.0019 |       0.2376 |       0.0047 |       0.1219 |       0.2454 |       0.2587 |       0.0777 |       0.1250 |       0.2613 |       0.2645 |       0.1055 |       0.1459 |       0.2647 |       0.2657 |       0.1075 |       0.1467 |
dl2.inv_rate                                0.0000 |       0.0000 |       0.0000 |       0.0000 |       0.0000 |       0.0000 |       0.0000 |       0.0000 |       0.0000 |       0.0000 |       0.0000 |       0.0000 |       0.0000 |       0.0000 |       0.0000 |       0.0000 |       0.0000 |       0.0000 |       0.0000 |       0.0000 |       0.0000 |       0.0000 |       0.0000 |       0.0000 |       0.0000 |       0.0000 |       0.0000 |       0.0000 |       0.0000 |       0.0000 |       0.0000 |       0.0000 |       0.0000 |       0.0000 |       0.0000 |       0.0000 |       0.0000 |       0.0000 |       0.0000 |       0.0000 |       0.0000 |       0.0000 |       0.0000 |       0.0000 |
itlb.accesses                               889681 |       889681 |       889681 |       889681 |      1918991 |      1918991 |      1918991 |      1918991 |      4050741 |      4050741 |      4050741 |      4050741 |      8707721 |      8707721 |      8707721 |      8707721 |     18321194 |     18321194 |     18321194 |     18321194 |     39143740 |     39143740 |     39143740 |     39143740 |     81932707 |     81932707 |     81932707 |     81932707 |    173821982 |    173821982 |    173821982 |    173821982 |    362255209 |    362255209 |    362255209 |    362255209 |    764367728 |    764367728 |    764367728 |    764367728 |   1587422741 |   1587422741 |   1587422741 |   1587422741 |
itlb.hits                                   889673 |       889673 |       889673 |       889673 |      1918983 |      1918983 |      1918983 |      1918983 |      4050733 |      4050733 |      4050733 |      4050733 |      8707713 |      8707713 |      8707713 |      8707713 |     18321186 |     18321186 |     18321186 |     18321186 |     39143732 |     39143732 |     39143732 |     39143732 |     81932699 |     81932699 |     81932699 |     81932699 |    173821974 |    173821974 |    173821974 |    173821974 |    362255201 |    362255201 |    362255201 |    362255201 |    764367720 |    764367720 |    764367720 |    764367720 |   1587422733 |   1587422733 |   1587422733 |   1587422733 |
itlb.misses                                      8 |            8 |            8 |            8 |            8 |            8 |            8 |            8 |            8 |            8 |            8 |            8 |            8 |            8 |            8 |            8 |            8 |            8 |            8 |            8 |            8 |            8 |            8 |            8 |            8 |            8 |            8 |            8 |            8 |            8 |            8 |            8 |            8 |            8 |            8 |            8 |            8 |            8 |            8 |            8 |            8 |            8 |            8 |            8 |
itlb.replacements                                0 |            0 |            0 |            0 |            0 |            0 |            0 |            0 |            0 |            0 |            0 |            0 |            0 |            0 |            0 |            0 |            0 |            0 |            0 |            0 |            0 |            0 |            0 |            0 |            0 |            0 |            0 |            0 |            0 |            0 |            0 |            0 |            0 |            0 |            0 |            0 |            0 |            0 |            0 |            0 |            0 |            0 |            0 |            0 |
itlb.writebacks                                  0 |            0 |            0 |            0 |            0 |            0 |            0 |            0 |            0 |            0 |            0 |            0 |            0 |            0 |            0 |            0 |            0 |            0 |            0 |            0 |            0 |            0 |            0 |            0 |            0 |            0 |            0 |            0 |            0 |            0 |            0 |            0 |            0 |            0 |            0 |            0 |            0 |            0 |            0 |            0 |            0 |            0 |            0 |            0 |
itlb.invalidations                               0 |            0 |            0 |            0 |            0 |            0 |            0 |            0 |            0 |            0 |            0 |            0 |            0 |            0 |            0 |            0 |            0 |            0 |            0 |            0 |            0 |            0 |            0 |            0 |            0 |            0 |            0 |            0 |            0 |            0 |            0 |            0 |            0 |            0 |            0 |            0 |            0 |            0 |            0 |            0 |            0 |            0 |            0 |            0 |
itlb.miss_rate                              0.0000 |       0.0000 |       0.0000 |       0.0000 |       0.0000 |       0.0000 |       0.0000 |       0.0000 |       0.0000 |       0.0000 |       0.0000 |       0.0000 |       0.0000 |       0.0000 |       0.0000 |       0.0000 |       0.0000 |       0.0000 |       0.0000 |       0.0000 |       0.0000 |       0.0000 |       0.0000 |       0.0000 |       0.0000 |       0.0000 |       0.0000 |       0.0000 |       0.0000 |       0.0000 |       0.0000 |       0.0000 |       0.0000 |       0.0000 |       0.0000 |       0.0000 |       0.0000 |       0.0000 |       0.0000 |       0.0000 |       0.0000 |       0.0000 |       0.0000 |       0.0000 |
itlb.repl_rate                              0.0000 |       0.0000 |       0.0000 |       0.0000 |       0.0000 |       0.0000 |       0.0000 |       0.0000 |       0.0000 |       0.0000 |       0.0000 |       0.0000 |       0.0000 |       0.0000 |       0.0000 |       0.0000 |       0.0000 |       0.0000 |       0.0000 |       0.0000 |       0.0000 |       0.0000 |       0.0000 |       0.0000 |       0.0000 |       0.0000 |       0.0000 |       0.0000 |       0.0000 |       0.0000 |       0.0000 |       0.0000 |       0.0000 |       0.0000 |       0.0000 |       0.0000 |       0.0000 |       0.0000 |       0.0000 |       0.0000 |       0.0000 |       0.0000 |       0.0000 |       0.0000 |
itlb.wb_rate                                0.0000 |       0.0000 |       0.0000 |       0.0000 |       0.0000 |       0.0000 |       0.0000 |       0.0000 |       0.0000 |       0.0000 |       0.0000 |       0.0000 |       0.0000 |       0.0000 |       0.0000 |       0.0000 |       0.0000 |       0.0000 |       0.0000 |       0.0000 |       0.0000 |       0.0000 |       0.0000 |       0.0000 |       0.0000 |       0.0000 |       0.0000 |       0.0000 |       0.0000 |       0.0000 |       0.0000 |       0.0000 |       0.0000 |       0.0000 |       0.0000 |       0.0000 |       0.0000 |       0.0000 |       0.0000 |       0.0000 |       0.0000 |       0.0000 |       0.0000 |       0.0000 |
itlb.inv_rate                               0.0000 |       0.0000 |       0.0000 |       0.0000 |       0.0000 |       0.0000 |       0.0000 |       0.0000 |       0.0000 |       0.0000 |       0.0000 |       0.0000 |       0.0000 |       0.0000 |       0.0000 |       0.0000 |       0.0000 |       0.0000 |       0.0000 |       0.0000 |       0.0000 |       0.0000 |       0.0000 |       0.0000 |       0.0000 |       0.0000 |       0.0000 |       0.0000 |       0.0000 |       0.0000 |       0.0000 |       0.0000 |       0.0000 |       0.0000 |       0.0000 |       0.0000 |       0.0000 |       0.0000 |       0.0000 |       0.0000 |       0.0000 |       0.0000 |       0.0000 |       0.0000 |
dtlb.accesses                               271719 |       271719 |       271719 |       271719 |       588736 |       588736 |       588736 |       588736 |      1210455 |      1210455 |      1210455 |      1210455 |      2626014 |      2626014 |      2626014 |      2626014 |      5408831 |      5408831 |      5408831 |      5408831 |     11667052 |     11667052 |     11667052 |     11667052 |     23979415 |     23979415 |     23979415 |     23979415 |     51367052 |     51367052 |     51367052 |     51367052 |    105328211 |    105328211 |    105328211 |    105328211 |    224279140 |    224279140 |    224279140 |    224279140 |    459023311 |    459023311 |    459023311 |    459023311 |
dtlb.hits                                   271704 |       271704 |       271704 |       271704 |       588713 |       588713 |       588713 |       588713 |      1210416 |      1210416 |      1210416 |      1210416 |      2625943 |      2625943 |      2625943 |      2625943 |      5408567 |      5408567 |      5408567 |      5408567 |     11662801 |     11662801 |     11662801 |     11662801 |     23970660 |     23970660 |     23970660 |     23970660 |     51347511 |     51347511 |     51347511 |     51347511 |    105289148 |    105289148 |    105289148 |    105289148 |    224192826 |    224192826 |    224192826 |    224192826 |    458850696 |    458850696 |    458850696 |    458850696 |
dtlb.misses                                     15 |           15 |           15 |           15 |           23 |           23 |           23 |           23 |           39 |           39 |           39 |           39 |           71 |           71 |           71 |           71 |          264 |          264 |          264 |          264 |         4251 |         4251 |         4251 |         4251 |         8755 |         8755 |         8755 |         8755 |        19541 |        19541 |        19541 |        19541 |        39063 |        39063 |        39063 |        39063 |        86314 |        86314 |        86314 |        86314 |       172615 |       172615 |       172615 |       172615 |
dtlb.replacements                                0 |            0 |            0 |            0 |            0 |            0 |            0 |            0 |            0 |            0 |            0 |            0 |            0 |            0 |            0 |            0 |          136 |          136 |          136 |          136 |         4123 |         4123 |         4123 |         4123 |         8627 |         8627 |         8627 |         8627 |        19413 |        19413 |        19413 |        19413 |        38935 |        38935 |        38935 |        38935 |        86186 |        86186 |        86186 |        86186 |       172487 |       172487 |       172487 |       172487 |
dtlb.writebacks                                  0 |            0 |            0 |            0 |            0 |            0 |            0 |            0 |            0 |            0 |            0 |            0 |            0 |            0 |            0 |            0 |           77 |           77 |           77 |           77 |         2158 |         2158 |         2158 |         2158 |         4573 |         4573 |         4573 |         4573 |        10232 |        10232 |        10232 |        10232 |        20514 |        20514 |        20514 |        20514 |        45183 |        45183 |        45183 |        45183 |        90422 |        90422 |        90422 |        90422 |
dtlb.invalidations                               0 |            0 |            0 |            0 |            0 |            0 |            0 |            0 |            0 |            0 |            0 |            0 |            0 |            0 |            0 |            0 |            0 |            0 |            0 |            0 |            0 |            0 |            0 |            0 |            0 |            0 |            0 |            0 |            0 |            0 |            0 |            0 |            0 |            0 |            0 |            0 |            0 |            0 |            0 |            0 |            0 |            0 |            0 |            0 |
dtlb.miss_rate                              0.0001 |       0.0001 |       0.0001 |       0.0001 |       0.0000 |       0.0000 |       0.0000 |       0.0000 |       0.0000 |       0.0000 |       0.0000 |       0.0000 |       0.0000 |       0.0000 |       0.0000 |       0.0000 |       0.0000 |       0.0000 |       0.0000 |       0.0000 |       0.0004 |       0.0004 |       0.0004 |       0.0004 |       0.0004 |       0.0004 |       0.0004 |       0.0004 |       0.0004 |       0.0004 |       0.0004 |       0.0004 |       0.0004 |       0.0004 |       0.0004 |       0.0004 |       0.0004 |       0.0004 |       0.0004 |       0.0004 |       0.0004 |       0.0004 |       0.0004 |       0.0004 |
dtlb.repl_rate                              0.0000 |       0.0000 |       0.0000 |       0.0000 |       0.0000 |       0.0000 |       0.0000 |       0.0000 |       0.0000 |       0.0000 |       0.0000 |       0.0000 |       0.0000 |       0.0000 |       0.0000 |       0.0000 |       0.0000 |       0.0000 |       0.0000 |       0.0000 |       0.0004 |       0.0004 |       0.0004 |       0.0004 |       0.0004 |       0.0004 |       0.0004 |       0.0004 |       0.0004 |       0.0004 |       0.0004 |       0.0004 |       0.0004 |       0.0004 |       0.0004 |       0.0004 |       0.0004 |       0.0004 |       0.0004 |       0.0004 |       0.0004 |       0.0004 |       0.0004 |       0.0004 |
dtlb.wb_rate                                0.0000 |       0.0000 |       0.0000 |       0.0000 |       0.0000 |       0.0000 |       0.0000 |       0.0000 |       0.0000 |       0.0000 |       0.0000 |       0.0000 |       0.0000 |       0.0000 |       0.0000 |       0.0000 |       0.0000 |       0.0000 |       0.0000 |       0.0000 |       0.0002 |       0.0002 |       0.0002 |       0.0002 |       0.0002 |       0.0002 |       0.0002 |       0.0002 |       0.0002 |       0.0002 |       0.0002 |       0.0002 |       0.0002 |       0.0002 |       0.0002 |       0.0002 |       0.0002 |       0.0002 |       0.0002 |       0.0002 |       0.0002 |       0.0002 |       0.0002 |       0.0002 |
dtlb.inv_rate                               0.0000 |       0.0000 |       0.0000 |       0.0000 |       0.0000 |       0.0000 |       0.0000 |       0.0000 |       0.0000 |       0.0000 |       0.0000 |       0.0000 |       0.0000 |       0.0000 |       0.0000 |       0.0000 |       0.0000 |       0.0000 |       0.0000 |       0.0000 |       0.0000 |       0.0000 |       0.0000 |       0.0000 |       0.0000 |       0.0000 |       0.0000 |       0.0000 |       0.0000 |       0.0000 |       0.0000 |       0.0000 |       0.0000 |       0.0000 |       0.0000 |       0.0000 |       0.0000 |       0.0000 |       0.0000 |       0.0000 |       0.0000 |       0.0000 |       0.0000 |       0.0000 |
ld_text_base                            0x00400000 |   0x00400000 |   0x00400000 |   0x00400000 |   0x00400000 |   0x00400000 |   0x00400000 |   0x00400000 |   0x00400000 |   0x00400000 |   0x00400000 |   0x00400000 |   0x00400000 |   0x00400000 |   0x00400000 |   0x00400000 |   0x00400000 |   0x00400000 |   0x00400000 |   0x00400000 |   0x00400000 |   0x00400000 |   0x00400000 |   0x00400000 |   0x00400000 |   0x00400000 |   0x00400000 |   0x00400000 |   0x00400000 |   0x00400000 |   0x00400000 |   0x00400000 |   0x00400000 |   0x00400000 |   0x00400000 |   0x00400000 |   0x00400000 |   0x00400000 |   0x00400000 |   0x00400000 |   0x00400000 |   0x00400000 |   0x00400000 |   0x00400000 |
ld_text_size                                 30880 |        30880 |        30880 |        30880 |        30912 |        30912 |        30912 |        30912 |        30928 |        30928 |        30928 |        30928 |        30960 |        30960 |        30960 |        30960 |        30960 |        30960 |        30960 |        30960 |        30960 |        30960 |        30960 |        30960 |        30960 |        30960 |        30960 |        30960 |        30960 |        30960 |        30960 |        30960 |        30960 |        30960 |        30960 |        30960 |        30960 |        30960 |        30960 |        30960 |        30960 |        30960 |        30960 |        30960 |
ld_data_base                            0x10000000 |   0x10000000 |   0x10000000 |   0x10000000 |   0x10000000 |   0x10000000 |   0x10000000 |   0x10000000 |   0x10000000 |   0x10000000 |   0x10000000 |   0x10000000 |   0x10000000 |   0x10000000 |   0x10000000 |   0x10000000 |   0x10000000 |   0x10000000 |   0x10000000 |   0x10000000 |   0x10000000 |   0x10000000 |   0x10000000 |   0x10000000 |   0x10000000 |   0x10000000 |   0x10000000 |   0x10000000 |   0x10000000 |   0x10000000 |   0x10000000 |   0x10000000 |   0x10000000 |   0x10000000 |   0x10000000 |   0x10000000 |   0x10000000 |   0x10000000 |   0x10000000 |   0x10000000 |   0x10000000 |   0x10000000 |   0x10000000 |   0x10000000 |
ld_data_size                                  4096 |         4096 |         4096 |         4096 |         4096 |         4096 |         4096 |         4096 |         4096 |         4096 |         4096 |         4096 |         4096 |         4096 |         4096 |         4096 |         4096 |         4096 |         4096 |         4096 |         4096 |         4096 |         4096 |         4096 |         4096 |         4096 |         4096 |         4096 |         4096 |         4096 |         4096 |         4096 |         4096 |         4096 |         4096 |         4096 |         4096 |         4096 |         4096 |         4096 |         4096 |         4096 |         4096 |         4096 |
ld_stack_base                           0x7fffc000 |   0x7fffc000 |   0x7fffc000 |   0x7fffc000 |   0x7fffc000 |   0x7fffc000 |   0x7fffc000 |   0x7fffc000 |   0x7fffc000 |   0x7fffc000 |   0x7fffc000 |   0x7fffc000 |   0x7fffc000 |   0x7fffc000 |   0x7fffc000 |   0x7fffc000 |   0x7fffc000 |   0x7fffc000 |   0x7fffc000 |   0x7fffc000 |   0x7fffc000 |   0x7fffc000 |   0x7fffc000 |   0x7fffc000 |   0x7fffc000 |   0x7fffc000 |   0x7fffc000 |   0x7fffc000 |   0x7fffc000 |   0x7fffc000 |   0x7fffc000 |   0x7fffc000 |   0x7fffc000 |   0x7fffc000 |   0x7fffc000 |   0x7fffc000 |   0x7fffc000 |   0x7fffc000 |   0x7fffc000 |   0x7fffc000 |   0x7fffc000 |   0x7fffc000 |   0x7fffc000 |   0x7fffc000 |
ld_stack_size                                16384 |        16384 |        16384 |        16384 |        16384 |        16384 |        16384 |        16384 |        16384 |        16384 |        16384 |        16384 |        16384 |        16384 |        16384 |        16384 |        16384 |        16384 |        16384 |        16384 |        16384 |        16384 |        16384 |        16384 |        16384 |        16384 |        16384 |        16384 |        16384 |        16384 |        16384 |        16384 |        16384 |        16384 |        16384 |        16384 |        16384 |        16384 |        16384 |        16384 |        16384 |        16384 |        16384 |        16384 |
ld_prog_entry                           0x00400140 |   0x00400140 |   0x00400140 |   0x00400140 |   0x00400140 |   0x00400140 |   0x00400140 |   0x00400140 |   0x00400140 |   0x00400140 |   0x00400140 |   0x00400140 |   0x00400140 |   0x00400140 |   0x00400140 |   0x00400140 |   0x00400140 |   0x00400140 |   0x00400140 |   0x00400140 |   0x00400140 |   0x00400140 |   0x00400140 |   0x00400140 |   0x00400140 |   0x00400140 |   0x00400140 |   0x00400140 |   0x00400140 |   0x00400140 |   0x00400140 |   0x00400140 |   0x00400140 |   0x00400140 |   0x00400140 |   0x00400140 |   0x00400140 |   0x00400140 |   0x00400140 |   0x00400140 |   0x00400140 |   0x00400140 |   0x00400140 |   0x00400140 |
ld_environ_base                         0x7fff8000 |   0x7fff8000 |   0x7fff8000 |   0x7fff8000 |   0x7fff8000 |   0x7fff8000 |   0x7fff8000 |   0x7fff8000 |   0x7fff8000 |   0x7fff8000 |   0x7fff8000 |   0x7fff8000 |   0x7fff8000 |   0x7fff8000 |   0x7fff8000 |   0x7fff8000 |   0x7fff8000 |   0x7fff8000 |   0x7fff8000 |   0x7fff8000 |   0x7fff8000 |   0x7fff8000 |   0x7fff8000 |   0x7fff8000 |   0x7fff8000 |   0x7fff8000 |   0x7fff8000 |   0x7fff8000 |   0x7fff8000 |   0x7fff8000 |   0x7fff8000 |   0x7fff8000 |   0x7fff8000 |   0x7fff8000 |   0x7fff8000 |   0x7fff8000 |   0x7fff8000 |   0x7fff8000 |   0x7fff8000 |   0x7fff8000 |   0x7fff8000 |   0x7fff8000 |   0x7fff8000 |   0x7fff8000 |
ld_target_big_endian                             0 |            0 |            0 |            0 |            0 |            0 |            0 |            0 |            0 |            0 |            0 |            0 |            0 |            0 |            0 |            0 |            0 |            0 |            0 |            0 |            0 |            0 |            0 |            0 |            0 |            0 |            0 |            0 |            0 |            0 |            0 |            0 |            0 |            0 |            0 |            0 |            0 |            0 |            0 |            0 |            0 |            0 |            0 |            0 |
mem.page_count                                  23 |           23 |           23 |           23 |           31 |           31 |           31 |           31 |           47 |           47 |           47 |           47 |           79 |           79 |           79 |           79 |          143 |          143 |          143 |          143 |          271 |          271 |          271 |          271 |          527 |          527 |          527 |          527 |         1045 |         1045 |         1045 |         1045 |         2069 |         2069 |         2069 |         2069 |         4123 |         4123 |         4123 |         4123 |         8231 |         8231 |         8231 |         8231 |
mem.page_mem                                   92k |          92k |          92k |          92k |         124k |         124k |         124k |         124k |         188k |         188k |         188k |         188k |         316k |         316k |         316k |         316k |         572k |         572k |         572k |         572k |        1084k |        1084k |        1084k |        1084k |        2108k |        2108k |        2108k |        2108k |        4180k |        4180k |        4180k |        4180k |        8276k |        8276k |        8276k |        8276k |       16492k |       16492k |       16492k |       16492k |       32924k |       32924k |       32924k |       32924k |
mem.ptab_misses                                 23 |           23 |           23 |           23 |           31 |           31 |           31 |           31 |           47 |           47 |           47 |           47 |           79 |           79 |           79 |           79 |          143 |          143 |          143 |          143 |          271 |          271 |          271 |          271 |          527 |          527 |          527 |          527 |         3096 |         3096 |         3096 |         3096 |       104541 |       104541 |       104541 |       104541 |       111223 |       111223 |       111223 |       111223 |       122695 |       122695 |       122695 |       122695 |
mem.ptab_accesses                          4292656 |      4292656 |      4292656 |      4292656 |      9044122 |      9044122 |      9044122 |      9044122 |     18814656 |     18814656 |     18814656 |     18814656 |     40273886 |     40273886 |     40273886 |     40273886 |     84293412 |     84293412 |     84293412 |     84293412 |    180100038 |    180100038 |    180100038 |    180100038 |    375880632 |    375880632 |    375880632 |    375880632 |    798213006 |    798213006 |    798213006 |    798213006 |   1659868232 |   1659868232 |   1659868232 |   1659868232 |   3506220166 |   3506220166 |   3506220166 |   3506220166 |   7267928560 |   7267928560 |   7267928560 |   7267928560 |
mem.ptab_miss_rate                          0.0000 |       0.0000 |       0.0000 |       0.0000 |       0.0000 |       0.0000 |       0.0000 |       0.0000 |       0.0000 |       0.0000 |       0.0000 |       0.0000 |       0.0000 |       0.0000 |       0.0000 |       0.0000 |       0.0000 |       0.0000 |       0.0000 |       0.0000 |       0.0000 |       0.0000 |       0.0000 |       0.0000 |       0.0000 |       0.0000 |       0.0000 |       0.0000 |       0.0000 |       0.0000 |       0.0000 |       0.0000 |       0.0001 |       0.0001 |       0.0001 |       0.0001 |       0.0000 |       0.0000 |       0.0000 |       0.0000 |       0.0000 |       0.0000 |       0.0000 |       0.0000 |
-------------------------------------------------------------------------------------------------
sim-bpred                                     4096 |         4096 |         4096 |         4096 |         4096 |         4096 |         4096 |         8192 |         8192 |         8192 |         8192 |         8192 |         8192 |         8192 |        16384 |        16384 |        16384 |        16384 |        16384 |        16384 |        16384 |        32768 |        32768 |        32768 |        32768 |        32768 |        32768 |        32768 |        65536 |        65536 |        65536 |        65536 |        65536 |        65536 |        65536 |       131072 |       131072 |       131072 |       131072 |       131072 |       131072 |       131072 |       262144 |       262144 |       262144 |       262144 |       262144 |       262144 |       262144 |       524288 |       524288 |       524288 |       524288 |       524288 |       524288 |       524288 |      1048576 |      1048576 |      1048576 |      1048576 |      1048576 |      1048576 |      1048576 |      2097152 |      2097152 |      2097152 |      2097152 |      2097152 |      2097152 |      2097152 |      4194304 |      4194304 |      4194304 |      4194304 |      4194304 |      4194304 |      4194304 |
-bpred bimod -bpred:bimod 512
-bpred bimod -bpred:bimod 1024
-bpred bimod -bpred:bimod 2048
-bpred 2lev -bpred:2lev 1 512 10 1
-bpred 2lev -bpred:2lev 1 1024 10 1
-bpred 2lev -bpred:2lev 1 2048 10 1
-bpred 2lev -bpred:2lev 1 4096 10 1
-------------------------------------------------------------------------------------------------
sim_num_insn                                889681 |       889681 |       889681 |       889681 |       889681 |       889681 |       889681 |      1918991 |      1918991 |      1918991 |      1918991 |      1918991 |      1918991 |      1918991 |      4050741 |      4050741 |      4050741 |      4050741 |      4050741 |      4050741 |      4050741 |      8707721 |      8707721 |      8707721 |      8707721 |      8707721 |      8707721 |      8707721 |     18321194 |     18321194 |     18321194 |     18321194 |     18321194 |     18321194 |     18321194 |     39143740 |     39143740 |     39143740 |     39143740 |     39143740 |     39143740 |     39143740 |     81932707 |     81932707 |     81932707 |     81932707 |     81932707 |     81932707 |     81932707 |    173821982 |    173821982 |    173821982 |    173821982 |    173821982 |    173821982 |    173821982 |    362255209 |    362255209 |    362255209 |    362255209 |    362255209 |    362255209 |    362255209 |    764367728 |    764367728 |    764367728 |    764367728 |    764367728 |    764367728 |    764367728 |   1587422741 |   1587422741 |   1587422741 |   1587422741 |   1587422741 |   1587422741 |   1587422741 |
sim_num_refs                                271649 |       271649 |       271649 |       271649 |       271649 |       271649 |       271649 |       588666 |       588666 |       588666 |       588666 |       588666 |       588666 |       588666 |      1210385 |      1210385 |      1210385 |      1210385 |      1210385 |      1210385 |      1210385 |      2625944 |      2625944 |      2625944 |      2625944 |      2625944 |      2625944 |      2625944 |      5408761 |      5408761 |      5408761 |      5408761 |      5408761 |      5408761 |      5408761 |     11666982 |     11666982 |     11666982 |     11666982 |     11666982 |     11666982 |     11666982 |     23979345 |     23979345 |     23979345 |     23979345 |     23979345 |     23979345 |     23979345 |     51366982 |     51366982 |     51366982 |     51366982 |     51366982 |     51366982 |     51366982 |    105328141 |    105328141 |    105328141 |    105328141 |    105328141 |    105328141 |    105328141 |    224279070 |    224279070 |    224279070 |    224279070 |    224279070 |    224279070 |    224279070 |    459023241 |    459023241 |    459023241 |    459023241 |    459023241 |    459023241 |    459023241 |
sim_elapsed_time                                 1 |            1 |            1 |            1 |            1 |            1 |            1 |            1 |            1 |            1 |            1 |            1 |            1 |            1 |            1 |            1 |            1 |            1 |            1 |            1 |            1 |            2 |            2 |            2 |            2 |            2 |            2 |            2 |            4 |            4 |            4 |            4 |            4 |            4 |            5 |           10 |            9 |           10 |           10 |            9 |           10 |           10 |           20 |           20 |           21 |           21 |           22 |           20 |           18 |           40 |           40 |           39 |           41 |           40 |           40 |           41 |           83 |           84 |           83 |           89 |           84 |           84 |           84 |          183 |          175 |          176 |          180 |          178 |          177 |          177 |          358 |          361 |          362 |          367 |          367 |          370 |          363 |
sim_inst_rate                          889681.0000 |  889681.0000 |  889681.0000 |  889681.0000 |  889681.0000 |  889681.0000 |  889681.0000 | 1918991.0000 | 1918991.0000 | 1918991.0000 | 1918991.0000 | 1918991.0000 | 1918991.0000 | 1918991.0000 | 4050741.0000 | 4050741.0000 | 4050741.0000 | 4050741.0000 | 4050741.0000 | 4050741.0000 | 4050741.0000 | 4353860.5000 | 4353860.5000 | 4353860.5000 | 4353860.5000 | 4353860.5000 | 4353860.5000 | 4353860.5000 | 4580298.5000 | 4580298.5000 | 4580298.5000 | 4580298.5000 | 4580298.5000 | 4580298.5000 | 3664238.8000 | 3914374.0000 | 4349304.4444 | 3914374.0000 | 3914374.0000 | 4349304.4444 | 3914374.0000 | 3914374.0000 | 4096635.3500 | 4096635.3500 | 3901557.4762 | 3901557.4762 | 3724213.9545 | 4096635.3500 | 4551817.0556 | 4345549.5500 | 4345549.5500 | 4456973.8974 | 4239560.5366 | 4345549.5500 | 4345549.5500 | 4239560.5366 | 4364520.5904 | 4312562.0119 | 4364520.5904 | 4070283.2472 | 4312562.0119 | 4312562.0119 | 4312562.0119 | 4176872.8306 | 4367815.5886 | 4342998.4545 | 4246487.3778 | 4294200.7191 | 4318461.7401 | 4318461.7401 | 4434141.7346 | 4397292.9114 | 4385145.6934 | 4325402.5640 | 4325402.5640 | 4290331.7324 | 4373065.4022 |
sim_num_branches                            125483 |       125483 |       125483 |       125483 |       125483 |       125483 |       125483 |       265789 |       265789 |       265789 |       265789 |       265789 |       265789 |       265789 |       559574 |       559574 |       559574 |       559574 |       559574 |       559574 |       559574 |      1186235 |      1186235 |      1186235 |      1186235 |      1186235 |      1186235 |      1186235 |      2493454 |      2493454 |      2493454 |      2493454 |      2493454 |      2493454 |      2493454 |      5266736 |      5266736 |      5266736 |      5266736 |      5266736 |      5266736 |      5266736 |     11022022 |     11022022 |     11022022 |     11022022 |     11022022 |     11022022 |     11022022 |     23157689 |     23157689 |     23157689 |     23157689 |     23157689 |     23157689 |     23157689 |     48276208 |     48276208 |     48276208 |     48276208 |     48276208 |     48276208 |     48276208 |    101017697 |    101017697 |    101017697 |    101017697 |    101017697 |    101017697 |    101017697 |    209909353 |    209909353 |    209909353 |    209909353 |    209909353 |    209909353 |    209909353 |
sim_IPB                                     7.0901 |       7.0901 |       7.0901 |       7.0901 |       7.0901 |       7.0901 |       7.0901 |       7.2200 |       7.2200 |       7.2200 |       7.2200 |       7.2200 |       7.2200 |       7.2200 |       7.2390 |       7.2390 |       7.2390 |       7.2390 |       7.2390 |       7.2390 |       7.2390 |       7.3406 |       7.3406 |       7.3406 |       7.3406 |       7.3406 |       7.3406 |       7.3406 |       7.3477 |       7.3477 |       7.3477 |       7.3477 |       7.3477 |       7.3477 |       7.3477 |       7.4323 |       7.4323 |       7.4323 |       7.4323 |       7.4323 |       7.4323 |       7.4323 |       7.4335 |       7.4335 |       7.4335 |       7.4335 |       7.4335 |       7.4335 |       7.4335 |       7.5060 |       7.5060 |       7.5060 |       7.5060 |       7.5060 |       7.5060 |       7.5060 |       7.5038 |       7.5038 |       7.5038 |       7.5038 |       7.5038 |       7.5038 |       7.5038 |       7.5667 |       7.5667 |       7.5667 |       7.5667 |       7.5667 |       7.5667 |       7.5667 |       7.5624 |       7.5624 |       7.5624 |       7.5624 |       7.5624 |       7.5624 |       7.5624 |
bpred_bimod.lookups                         125483 |       125483 |       125483 |xxxxxxxxxxxxx |xxxxxxxxxxxxx |xxxxxxxxxxxxx |xxxxxxxxxxxxx |       265789 |       265789 |       265789 |xxxxxxxxxxxxx |xxxxxxxxxxxxx |xxxxxxxxxxxxx |xxxxxxxxxxxxx |       559574 |       559574 |       559574 |xxxxxxxxxxxxx |xxxxxxxxxxxxx |xxxxxxxxxxxxx |xxxxxxxxxxxxx |      1186235 |      1186235 |      1186235 |xxxxxxxxxxxxx |xxxxxxxxxxxxx |xxxxxxxxxxxxx |xxxxxxxxxxxxx |      2493454 |      2493454 |      2493454 |xxxxxxxxxxxxx |xxxxxxxxxxxxx |xxxxxxxxxxxxx |xxxxxxxxxxxxx |      5266736 |      5266736 |      5266736 |xxxxxxxxxxxxx |xxxxxxxxxxxxx |xxxxxxxxxxxxx |xxxxxxxxxxxxx |     11022022 |     11022022 |     11022022 |xxxxxxxxxxxxx |xxxxxxxxxxxxx |xxxxxxxxxxxxx |xxxxxxxxxxxxx |     23157689 |     23157689 |     23157689 |xxxxxxxxxxxxx |xxxxxxxxxxxxx |xxxxxxxxxxxxx |xxxxxxxxxxxxx |     48276208 |     48276208 |     48276208 |xxxxxxxxxxxxx |xxxxxxxxxxxxx |xxxxxxxxxxxxx |xxxxxxxxxxxxx |    101017697 |    101017697 |    101017697 |xxxxxxxxxxxxx |xxxxxxxxxxxxx |xxxxxxxxxxxxx |xxxxxxxxxxxxx |    209909353 |    209909353 |    209909353 |
bpred_bimod.updates                         125483 |       125483 |       125483 |xxxxxxxxxxxxx |xxxxxxxxxxxxx |xxxxxxxxxxxxx |xxxxxxxxxxxxx |       265789 |       265789 |       265789 |xxxxxxxxxxxxx |xxxxxxxxxxxxx |xxxxxxxxxxxxx |xxxxxxxxxxxxx |       559574 |       559574 |       559574 |xxxxxxxxxxxxx |xxxxxxxxxxxxx |xxxxxxxxxxxxx |xxxxxxxxxxxxx |      1186235 |      1186235 |      1186235 |xxxxxxxxxxxxx |xxxxxxxxxxxxx |xxxxxxxxxxxxx |xxxxxxxxxxxxx |      2493454 |      2493454 |      2493454 |xxxxxxxxxxxxx |xxxxxxxxxxxxx |xxxxxxxxxxxxx |xxxxxxxxxxxxx |      5266736 |      5266736 |      5266736 |xxxxxxxxxxxxx |xxxxxxxxxxxxx |xxxxxxxxxxxxx |xxxxxxxxxxxxx |     11022022 |     11022022 |     11022022 |xxxxxxxxxxxxx |xxxxxxxxxxxxx |xxxxxxxxxxxxx |xxxxxxxxxxxxx |     23157689 |     23157689 |     23157689 |xxxxxxxxxxxxx |xxxxxxxxxxxxx |xxxxxxxxxxxxx |xxxxxxxxxxxxx |     48276208 |     48276208 |     48276208 |xxxxxxxxxxxxx |xxxxxxxxxxxxx |xxxxxxxxxxxxx |xxxxxxxxxxxxx |    101017697 |    101017697 |    101017697 |xxxxxxxxxxxxx |xxxxxxxxxxxxx |xxxxxxxxxxxxx |xxxxxxxxxxxxx |    209909353 |    209909353 |    209909353 |
bpred_bimod.addr_hits                        99718 |        99725 |        99730 |xxxxxxxxxxxxx |xxxxxxxxxxxxx |xxxxxxxxxxxxx |xxxxxxxxxxxxx |       210690 |       210699 |       210447 |xxxxxxxxxxxxx |xxxxxxxxxxxxx |xxxxxxxxxxxxx |xxxxxxxxxxxxx |       440621 |       440632 |       440635 |xxxxxxxxxxxxx |xxxxxxxxxxxxx |xxxxxxxxxxxxx |xxxxxxxxxxxxx |       932394 |       932402 |       932405 |xxxxxxxxxxxxx |xxxxxxxxxxxxx |xxxxxxxxxxxxx |xxxxxxxxxxxxx |      1953312 |      1953323 |      1953326 |xxxxxxxxxxxxx |xxxxxxxxxxxxx |xxxxxxxxxxxxx |xxxxxxxxxxxxx |      4119369 |      4119377 |      4119380 |xxxxxxxxxxxxx |xxxxxxxxxxxxx |xxxxxxxxxxxxx |xxxxxxxxxxxxx |      8596854 |      8596863 |      8596866 |xxxxxxxxxxxxx |xxxxxxxxxxxxx |xxxxxxxxxxxxx |xxxxxxxxxxxxx |     18060171 |     18060182 |     18060181 |xxxxxxxxxxxxx |xxxxxxxxxxxxx |xxxxxxxxxxxxx |xxxxxxxxxxxxx |     37573089 |     37573098 |     37573097 |xxxxxxxxxxxxx |xxxxxxxxxxxxx |xxxxxxxxxxxxx |xxxxxxxxxxxxx |     78575286 |     78575297 |     78575296 |xxxxxxxxxxxxx |xxxxxxxxxxxxx |xxxxxxxxxxxxx |xxxxxxxxxxxxx |    162951756 |    162951766 |    162951765 |
bpred_bimod.dir_hits                         99853 |        99858 |        99860 |xxxxxxxxxxxxx |xxxxxxxxxxxxx |xxxxxxxxxxxxx |xxxxxxxxxxxxx |       210826 |       210837 |       210583 |xxxxxxxxxxxxx |xxxxxxxxxxxxx |xxxxxxxxxxxxx |xxxxxxxxxxxxx |       440753 |       440764 |       440766 |xxxxxxxxxxxxx |xxxxxxxxxxxxx |xxxxxxxxxxxxx |xxxxxxxxxxxxx |       932529 |       932537 |       932542 |xxxxxxxxxxxxx |xxxxxxxxxxxxx |xxxxxxxxxxxxx |xxxxxxxxxxxxx |      1953442 |      1953453 |      1953458 |xxxxxxxxxxxxx |xxxxxxxxxxxxx |xxxxxxxxxxxxx |xxxxxxxxxxxxx |      4119505 |      4119512 |      4119517 |xxxxxxxxxxxxx |xxxxxxxxxxxxx |xxxxxxxxxxxxx |xxxxxxxxxxxxx |      8596984 |      8596992 |      8596997 |xxxxxxxxxxxxx |xxxxxxxxxxxxx |xxxxxxxxxxxxx |xxxxxxxxxxxxx |     18060318 |     18060326 |     18060326 |xxxxxxxxxxxxx |xxxxxxxxxxxxx |xxxxxxxxxxxxx |xxxxxxxxxxxxx |     37573233 |     37573240 |     37573240 |xxxxxxxxxxxxx |xxxxxxxxxxxxx |xxxxxxxxxxxxx |xxxxxxxxxxxxx |     78575432 |     78575440 |     78575440 |xxxxxxxxxxxxx |xxxxxxxxxxxxx |xxxxxxxxxxxxx |xxxxxxxxxxxxx |    162951900 |    162951908 |    162951908 |
bpred_bimod.misses                           25630 |        25625 |        25623 |xxxxxxxxxxxxx |xxxxxxxxxxxxx |xxxxxxxxxxxxx |xxxxxxxxxxxxx |        54963 |        54952 |        55206 |xxxxxxxxxxxxx |xxxxxxxxxxxxx |xxxxxxxxxxxxx |xxxxxxxxxxxxx |       118821 |       118810 |       118808 |xxxxxxxxxxxxx |xxxxxxxxxxxxx |xxxxxxxxxxxxx |xxxxxxxxxxxxx |       253706 |       253698 |       253693 |xxxxxxxxxxxxx |xxxxxxxxxxxxx |xxxxxxxxxxxxx |xxxxxxxxxxxxx |       540012 |       540001 |       539996 |xxxxxxxxxxxxx |xxxxxxxxxxxxx |xxxxxxxxxxxxx |xxxxxxxxxxxxx |      1147231 |      1147224 |      1147219 |xxxxxxxxxxxxx |xxxxxxxxxxxxx |xxxxxxxxxxxxx |xxxxxxxxxxxxx |      2425038 |      2425030 |      2425025 |xxxxxxxxxxxxx |xxxxxxxxxxxxx |xxxxxxxxxxxxx |xxxxxxxxxxxxx |      5097371 |      5097363 |      5097363 |xxxxxxxxxxxxx |xxxxxxxxxxxxx |xxxxxxxxxxxxx |xxxxxxxxxxxxx |     10702975 |     10702968 |     10702968 |xxxxxxxxxxxxx |xxxxxxxxxxxxx |xxxxxxxxxxxxx |xxxxxxxxxxxxx |     22442265 |     22442257 |     22442257 |xxxxxxxxxxxxx |xxxxxxxxxxxxx |xxxxxxxxxxxxx |xxxxxxxxxxxxx |     46957453 |     46957445 |     46957445 |
bpred_bimod.jr_hits                           8566 |         8566 |         8566 |xxxxxxxxxxxxx |xxxxxxxxxxxxx |xxxxxxxxxxxxx |xxxxxxxxxxxxx |        16760 |        16760 |        16760 |xxxxxxxxxxxxx |xxxxxxxxxxxxx |xxxxxxxxxxxxx |xxxxxxxxxxxxx |        33142 |        33142 |        33142 |xxxxxxxxxxxxx |xxxxxxxxxxxxx |xxxxxxxxxxxxx |xxxxxxxxxxxxx |        65912 |        65912 |        65912 |xxxxxxxxxxxxx |xxxxxxxxxxxxx |xxxxxxxxxxxxx |xxxxxxxxxxxxx |       131446 |       131446 |       131446 |xxxxxxxxxxxxx |xxxxxxxxxxxxx |xxxxxxxxxxxxx |xxxxxxxxxxxxx |       262520 |       262520 |       262520 |xxxxxxxxxxxxx |xxxxxxxxxxxxx |xxxxxxxxxxxxx |xxxxxxxxxxxxx |       524662 |       524662 |       524662 |xxxxxxxxxxxxx |xxxxxxxxxxxxx |xxxxxxxxxxxxx |xxxxxxxxxxxxx |      1048956 |      1048956 |      1048956 |xxxxxxxxxxxxx |xxxxxxxxxxxxx |xxxxxxxxxxxxx |xxxxxxxxxxxxx |      2097529 |      2097529 |      2097529 |xxxxxxxxxxxxx |xxxxxxxxxxxxx |xxxxxxxxxxxxx |xxxxxxxxxxxxx |      4194684 |      4194684 |      4194684 |xxxxxxxxxxxxx |xxxxxxxxxxxxx |xxxxxxxxxxxxx |xxxxxxxxxxxxx |      8388985 |      8388985 |      8388985 |
bpred_bimod.jr_seen                           8567 |         8567 |         8567 |xxxxxxxxxxxxx |xxxxxxxxxxxxx |xxxxxxxxxxxxx |xxxxxxxxxxxxx |        16762 |        16762 |        16762 |xxxxxxxxxxxxx |xxxxxxxxxxxxx |xxxxxxxxxxxxx |xxxxxxxxxxxxx |        33143 |        33143 |        33143 |xxxxxxxxxxxxx |xxxxxxxxxxxxx |xxxxxxxxxxxxx |xxxxxxxxxxxxx |        65914 |        65914 |        65914 |xxxxxxxxxxxxx |xxxxxxxxxxxxx |xxxxxxxxxxxxx |xxxxxxxxxxxxx |       131447 |       131447 |       131447 |xxxxxxxxxxxxx |xxxxxxxxxxxxx |xxxxxxxxxxxxx |xxxxxxxxxxxxx |       262522 |       262522 |       262522 |xxxxxxxxxxxxx |xxxxxxxxxxxxx |xxxxxxxxxxxxx |xxxxxxxxxxxxx |       524663 |       524663 |       524663 |xxxxxxxxxxxxx |xxxxxxxxxxxxx |xxxxxxxxxxxxx |xxxxxxxxxxxxx |      1048957 |      1048957 |      1048957 |xxxxxxxxxxxxx |xxxxxxxxxxxxx |xxxxxxxxxxxxx |xxxxxxxxxxxxx |      2097530 |      2097530 |      2097530 |xxxxxxxxxxxxx |xxxxxxxxxxxxx |xxxxxxxxxxxxx |xxxxxxxxxxxxx |      4194685 |      4194685 |      4194685 |xxxxxxxxxxxxx |xxxxxxxxxxxxx |xxxxxxxxxxxxx |xxxxxxxxxxxxx |      8388986 |      8388986 |      8388986 |
bpred_bimod.jr_non_ras_hits.PP                   0 |            0 |            0 |xxxxxxxxxxxxx |xxxxxxxxxxxxx |xxxxxxxxxxxxx |xxxxxxxxxxxxx |            0 |            0 |            0 |xxxxxxxxxxxxx |xxxxxxxxxxxxx |xxxxxxxxxxxxx |xxxxxxxxxxxxx |            0 |            0 |            0 |xxxxxxxxxxxxx |xxxxxxxxxxxxx |xxxxxxxxxxxxx |xxxxxxxxxxxxx |            0 |            0 |            0 |xxxxxxxxxxxxx |xxxxxxxxxxxxx |xxxxxxxxxxxxx |xxxxxxxxxxxxx |            0 |            0 |            0 |xxxxxxxxxxxxx |xxxxxxxxxxxxx |xxxxxxxxxxxxx |xxxxxxxxxxxxx |            0 |            0 |            0 |xxxxxxxxxxxxx |xxxxxxxxxxxxx |xxxxxxxxxxxxx |xxxxxxxxxxxxx |            0 |            0 |            0 |xxxxxxxxxxxxx |xxxxxxxxxxxxx |xxxxxxxxxxxxx |xxxxxxxxxxxxx |            1 |            1 |            1 |xxxxxxxxxxxxx |xxxxxxxxxxxxx |xxxxxxxxxxxxx |xxxxxxxxxxxxx |            0 |            0 |            0 |xxxxxxxxxxxxx |xxxxxxxxxxxxx |xxxxxxxxxxxxx |xxxxxxxxxxxxx |            1 |            1 |            1 |xxxxxxxxxxxxx |xxxxxxxxxxxxx |xxxxxxxxxxxxx |xxxxxxxxxxxxx |            0 |            0 |            0 |
bpred_bimod.jr_non_ras_seen.PP                   0 |            0 |            0 |xxxxxxxxxxxxx |xxxxxxxxxxxxx |xxxxxxxxxxxxx |xxxxxxxxxxxxx |            1 |            1 |            1 |xxxxxxxxxxxxx |xxxxxxxxxxxxx |xxxxxxxxxxxxx |xxxxxxxxxxxxx |            0 |            0 |            0 |xxxxxxxxxxxxx |xxxxxxxxxxxxx |xxxxxxxxxxxxx |xxxxxxxxxxxxx |            1 |            1 |            1 |xxxxxxxxxxxxx |xxxxxxxxxxxxx |xxxxxxxxxxxxx |xxxxxxxxxxxxx |            0 |            0 |            0 |xxxxxxxxxxxxx |xxxxxxxxxxxxx |xxxxxxxxxxxxx |xxxxxxxxxxxxx |            1 |            1 |            1 |xxxxxxxxxxxxx |xxxxxxxxxxxxx |xxxxxxxxxxxxx |xxxxxxxxxxxxx |            0 |            0 |            0 |xxxxxxxxxxxxx |xxxxxxxxxxxxx |xxxxxxxxxxxxx |xxxxxxxxxxxxx |            2 |            2 |            2 |xxxxxxxxxxxxx |xxxxxxxxxxxxx |xxxxxxxxxxxxx |xxxxxxxxxxxxx |            1 |            1 |            1 |xxxxxxxxxxxxx |xxxxxxxxxxxxx |xxxxxxxxxxxxx |xxxxxxxxxxxxx |            2 |            2 |            2 |xxxxxxxxxxxxx |xxxxxxxxxxxxx |xxxxxxxxxxxxx |xxxxxxxxxxxxx |            1 |            1 |            1 |
bpred_bimod.bpred_addr_rate                 0.7947 |       0.7947 |       0.7948 |xxxxxxxxxxxxx |xxxxxxxxxxxxx |xxxxxxxxxxxxx |xxxxxxxxxxxxx |       0.7927 |       0.7927 |       0.7918 |xxxxxxxxxxxxx |xxxxxxxxxxxxx |xxxxxxxxxxxxx |xxxxxxxxxxxxx |       0.7874 |       0.7874 |       0.7874 |xxxxxxxxxxxxx |xxxxxxxxxxxxx |xxxxxxxxxxxxx |xxxxxxxxxxxxx |       0.7860 |       0.7860 |       0.7860 |xxxxxxxxxxxxx |xxxxxxxxxxxxx |xxxxxxxxxxxxx |xxxxxxxxxxxxx |       0.7834 |       0.7834 |       0.7834 |xxxxxxxxxxxxx |xxxxxxxxxxxxx |xxxxxxxxxxxxx |xxxxxxxxxxxxx |       0.7821 |       0.7821 |       0.7822 |xxxxxxxxxxxxx |xxxxxxxxxxxxx |xxxxxxxxxxxxx |xxxxxxxxxxxxx |       0.7800 |       0.7800 |       0.7800 |xxxxxxxxxxxxx |xxxxxxxxxxxxx |xxxxxxxxxxxxx |xxxxxxxxxxxxx |       0.7799 |       0.7799 |       0.7799 |xxxxxxxxxxxxx |xxxxxxxxxxxxx |xxxxxxxxxxxxx |xxxxxxxxxxxxx |       0.7783 |       0.7783 |       0.7783 |xxxxxxxxxxxxx |xxxxxxxxxxxxx |xxxxxxxxxxxxx |xxxxxxxxxxxxx |       0.7778 |       0.7778 |       0.7778 |xxxxxxxxxxxxx |xxxxxxxxxxxxx |xxxxxxxxxxxxx |xxxxxxxxxxxxx |       0.7763 |       0.7763 |       0.7763 |
bpred_bimod.bpred_dir_rate                  0.7957 |       0.7958 |       0.7958 |xxxxxxxxxxxxx |xxxxxxxxxxxxx |xxxxxxxxxxxxx |xxxxxxxxxxxxx |       0.7932 |       0.7932 |       0.7923 |xxxxxxxxxxxxx |xxxxxxxxxxxxx |xxxxxxxxxxxxx |xxxxxxxxxxxxx |       0.7877 |       0.7877 |       0.7877 |xxxxxxxxxxxxx |xxxxxxxxxxxxx |xxxxxxxxxxxxx |xxxxxxxxxxxxx |       0.7861 |       0.7861 |       0.7861 |xxxxxxxxxxxxx |xxxxxxxxxxxxx |xxxxxxxxxxxxx |xxxxxxxxxxxxx |       0.7834 |       0.7834 |       0.7834 |xxxxxxxxxxxxx |xxxxxxxxxxxxx |xxxxxxxxxxxxx |xxxxxxxxxxxxx |       0.7822 |       0.7822 |       0.7822 |xxxxxxxxxxxxx |xxxxxxxxxxxxx |xxxxxxxxxxxxx |xxxxxxxxxxxxx |       0.7800 |       0.7800 |       0.7800 |xxxxxxxxxxxxx |xxxxxxxxxxxxx |xxxxxxxxxxxxx |xxxxxxxxxxxxx |       0.7799 |       0.7799 |       0.7799 |xxxxxxxxxxxxx |xxxxxxxxxxxxx |xxxxxxxxxxxxx |xxxxxxxxxxxxx |       0.7783 |       0.7783 |       0.7783 |xxxxxxxxxxxxx |xxxxxxxxxxxxx |xxxxxxxxxxxxx |xxxxxxxxxxxxx |       0.7778 |       0.7778 |       0.7778 |xxxxxxxxxxxxx |xxxxxxxxxxxxx |xxxxxxxxxxxxx |xxxxxxxxxxxxx |       0.7763 |       0.7763 |       0.7763 |
bpred_bimod.bpred_jr_rate                   0.9999 |       0.9999 |       0.9999 |xxxxxxxxxxxxx |xxxxxxxxxxxxx |xxxxxxxxxxxxx |xxxxxxxxxxxxx |       0.9999 |       0.9999 |       0.9999 |xxxxxxxxxxxxx |xxxxxxxxxxxxx |xxxxxxxxxxxxx |xxxxxxxxxxxxx |       1.0000 |       1.0000 |       1.0000 |xxxxxxxxxxxxx |xxxxxxxxxxxxx |xxxxxxxxxxxxx |xxxxxxxxxxxxx |       1.0000 |       1.0000 |       1.0000 |xxxxxxxxxxxxx |xxxxxxxxxxxxx |xxxxxxxxxxxxx |xxxxxxxxxxxxx |       1.0000 |       1.0000 |       1.0000 |xxxxxxxxxxxxx |xxxxxxxxxxxxx |xxxxxxxxxxxxx |xxxxxxxxxxxxx |       1.0000 |       1.0000 |       1.0000 |xxxxxxxxxxxxx |xxxxxxxxxxxxx |xxxxxxxxxxxxx |xxxxxxxxxxxxx |       1.0000 |       1.0000 |       1.0000 |xxxxxxxxxxxxx |xxxxxxxxxxxxx |xxxxxxxxxxxxx |xxxxxxxxxxxxx |       1.0000 |       1.0000 |       1.0000 |xxxxxxxxxxxxx |xxxxxxxxxxxxx |xxxxxxxxxxxxx |xxxxxxxxxxxxx |       1.0000 |       1.0000 |       1.0000 |xxxxxxxxxxxxx |xxxxxxxxxxxxx |xxxxxxxxxxxxx |xxxxxxxxxxxxx |       1.0000 |       1.0000 |       1.0000 |xxxxxxxxxxxxx |xxxxxxxxxxxxx |xxxxxxxxxxxxx |xxxxxxxxxxxxx |       1.0000 |       1.0000 |       1.0000 |
bpred_bimod.bpred_jr_non_ras_rate.PP       <error: |      <error: |      <error: |xxxxxxxxxxxxx |xxxxxxxxxxxxx |xxxxxxxxxxxxx |xxxxxxxxxxxxx |       0.0000 |       0.0000 |       0.0000 |xxxxxxxxxxxxx |xxxxxxxxxxxxx |xxxxxxxxxxxxx |xxxxxxxxxxxxx |      <error: |      <error: |      <error: |xxxxxxxxxxxxx |xxxxxxxxxxxxx |xxxxxxxxxxxxx |xxxxxxxxxxxxx |       0.0000 |       0.0000 |       0.0000 |xxxxxxxxxxxxx |xxxxxxxxxxxxx |xxxxxxxxxxxxx |xxxxxxxxxxxxx |      <error: |      <error: |      <error: |xxxxxxxxxxxxx |xxxxxxxxxxxxx |xxxxxxxxxxxxx |xxxxxxxxxxxxx |       0.0000 |       0.0000 |       0.0000 |xxxxxxxxxxxxx |xxxxxxxxxxxxx |xxxxxxxxxxxxx |xxxxxxxxxxxxx |      <error: |      <error: |      <error: |xxxxxxxxxxxxx |xxxxxxxxxxxxx |xxxxxxxxxxxxx |xxxxxxxxxxxxx |       0.5000 |       0.5000 |       0.5000 |xxxxxxxxxxxxx |xxxxxxxxxxxxx |xxxxxxxxxxxxx |xxxxxxxxxxxxx |       0.0000 |       0.0000 |       0.0000 |xxxxxxxxxxxxx |xxxxxxxxxxxxx |xxxxxxxxxxxxx |xxxxxxxxxxxxx |       0.5000 |       0.5000 |       0.5000 |xxxxxxxxxxxxx |xxxxxxxxxxxxx |xxxxxxxxxxxxx |xxxxxxxxxxxxx |       0.0000 |       0.0000 |       0.0000 |
bpred_bimod.retstack_pushes                   8569 |         8569 |         8569 |xxxxxxxxxxxxx |xxxxxxxxxxxxx |xxxxxxxxxxxxx |xxxxxxxxxxxxx |        16763 |        16763 |        16763 |xxxxxxxxxxxxx |xxxxxxxxxxxxx |xxxxxxxxxxxxx |xxxxxxxxxxxxx |        33145 |        33145 |        33145 |xxxxxxxxxxxxx |xxxxxxxxxxxxx |xxxxxxxxxxxxx |xxxxxxxxxxxxx |        65915 |        65915 |        65915 |xxxxxxxxxxxxx |xxxxxxxxxxxxx |xxxxxxxxxxxxx |xxxxxxxxxxxxx |       131449 |       131449 |       131449 |xxxxxxxxxxxxx |xxxxxxxxxxxxx |xxxxxxxxxxxxx |xxxxxxxxxxxxx |       262523 |       262523 |       262523 |xxxxxxxxxxxxx |xxxxxxxxxxxxx |xxxxxxxxxxxxx |xxxxxxxxxxxxx |       524665 |       524665 |       524665 |xxxxxxxxxxxxx |xxxxxxxxxxxxx |xxxxxxxxxxxxx |xxxxxxxxxxxxx |      1048957 |      1048957 |      1048957 |xxxxxxxxxxxxx |xxxxxxxxxxxxx |xxxxxxxxxxxxx |xxxxxxxxxxxxx |      2097531 |      2097531 |      2097531 |xxxxxxxxxxxxx |xxxxxxxxxxxxx |xxxxxxxxxxxxx |xxxxxxxxxxxxx |      4194685 |      4194685 |      4194685 |xxxxxxxxxxxxx |xxxxxxxxxxxxx |xxxxxxxxxxxxx |xxxxxxxxxxxxx |      8388987 |      8388987 |      8388987 |
bpred_bimod.retstack_pops                     8567 |         8567 |         8567 |xxxxxxxxxxxxx |xxxxxxxxxxxxx |xxxxxxxxxxxxx |xxxxxxxxxxxxx |        16761 |        16761 |        16761 |xxxxxxxxxxxxx |xxxxxxxxxxxxx |xxxxxxxxxxxxx |xxxxxxxxxxxxx |        33143 |        33143 |        33143 |xxxxxxxxxxxxx |xxxxxxxxxxxxx |xxxxxxxxxxxxx |xxxxxxxxxxxxx |        65913 |        65913 |        65913 |xxxxxxxxxxxxx |xxxxxxxxxxxxx |xxxxxxxxxxxxx |xxxxxxxxxxxxx |       131447 |       131447 |       131447 |xxxxxxxxxxxxx |xxxxxxxxxxxxx |xxxxxxxxxxxxx |xxxxxxxxxxxxx |       262521 |       262521 |       262521 |xxxxxxxxxxxxx |xxxxxxxxxxxxx |xxxxxxxxxxxxx |xxxxxxxxxxxxx |       524663 |       524663 |       524663 |xxxxxxxxxxxxx |xxxxxxxxxxxxx |xxxxxxxxxxxxx |xxxxxxxxxxxxx |      1048955 |      1048955 |      1048955 |xxxxxxxxxxxxx |xxxxxxxxxxxxx |xxxxxxxxxxxxx |xxxxxxxxxxxxx |      2097529 |      2097529 |      2097529 |xxxxxxxxxxxxx |xxxxxxxxxxxxx |xxxxxxxxxxxxx |xxxxxxxxxxxxx |      4194683 |      4194683 |      4194683 |xxxxxxxxxxxxx |xxxxxxxxxxxxx |xxxxxxxxxxxxx |xxxxxxxxxxxxx |      8388985 |      8388985 |      8388985 |
bpred_bimod.used_ras.PP                       8567 |         8567 |         8567 |xxxxxxxxxxxxx |xxxxxxxxxxxxx |xxxxxxxxxxxxx |xxxxxxxxxxxxx |        16761 |        16761 |        16761 |xxxxxxxxxxxxx |xxxxxxxxxxxxx |xxxxxxxxxxxxx |xxxxxxxxxxxxx |        33143 |        33143 |        33143 |xxxxxxxxxxxxx |xxxxxxxxxxxxx |xxxxxxxxxxxxx |xxxxxxxxxxxxx |        65913 |        65913 |        65913 |xxxxxxxxxxxxx |xxxxxxxxxxxxx |xxxxxxxxxxxxx |xxxxxxxxxxxxx |       131447 |       131447 |       131447 |xxxxxxxxxxxxx |xxxxxxxxxxxxx |xxxxxxxxxxxxx |xxxxxxxxxxxxx |       262521 |       262521 |       262521 |xxxxxxxxxxxxx |xxxxxxxxxxxxx |xxxxxxxxxxxxx |xxxxxxxxxxxxx |       524663 |       524663 |       524663 |xxxxxxxxxxxxx |xxxxxxxxxxxxx |xxxxxxxxxxxxx |xxxxxxxxxxxxx |      1048955 |      1048955 |      1048955 |xxxxxxxxxxxxx |xxxxxxxxxxxxx |xxxxxxxxxxxxx |xxxxxxxxxxxxx |      2097529 |      2097529 |      2097529 |xxxxxxxxxxxxx |xxxxxxxxxxxxx |xxxxxxxxxxxxx |xxxxxxxxxxxxx |      4194683 |      4194683 |      4194683 |xxxxxxxxxxxxx |xxxxxxxxxxxxx |xxxxxxxxxxxxx |xxxxxxxxxxxxx |      8388985 |      8388985 |      8388985 |
bpred_bimod.ras_hits.PP                       8566 |         8566 |         8566 |xxxxxxxxxxxxx |xxxxxxxxxxxxx |xxxxxxxxxxxxx |xxxxxxxxxxxxx |        16760 |        16760 |        16760 |xxxxxxxxxxxxx |xxxxxxxxxxxxx |xxxxxxxxxxxxx |xxxxxxxxxxxxx |        33142 |        33142 |        33142 |xxxxxxxxxxxxx |xxxxxxxxxxxxx |xxxxxxxxxxxxx |xxxxxxxxxxxxx |        65912 |        65912 |        65912 |xxxxxxxxxxxxx |xxxxxxxxxxxxx |xxxxxxxxxxxxx |xxxxxxxxxxxxx |       131446 |       131446 |       131446 |xxxxxxxxxxxxx |xxxxxxxxxxxxx |xxxxxxxxxxxxx |xxxxxxxxxxxxx |       262520 |       262520 |       262520 |xxxxxxxxxxxxx |xxxxxxxxxxxxx |xxxxxxxxxxxxx |xxxxxxxxxxxxx |       524662 |       524662 |       524662 |xxxxxxxxxxxxx |xxxxxxxxxxxxx |xxxxxxxxxxxxx |xxxxxxxxxxxxx |      1048955 |      1048955 |      1048955 |xxxxxxxxxxxxx |xxxxxxxxxxxxx |xxxxxxxxxxxxx |xxxxxxxxxxxxx |      2097529 |      2097529 |      2097529 |xxxxxxxxxxxxx |xxxxxxxxxxxxx |xxxxxxxxxxxxx |xxxxxxxxxxxxx |      4194683 |      4194683 |      4194683 |xxxxxxxxxxxxx |xxxxxxxxxxxxx |xxxxxxxxxxxxx |xxxxxxxxxxxxx |      8388985 |      8388985 |      8388985 |
bpred_bimod.ras_rate.PP                     0.9999 |       0.9999 |       0.9999 |xxxxxxxxxxxxx |xxxxxxxxxxxxx |xxxxxxxxxxxxx |xxxxxxxxxxxxx |       0.9999 |       0.9999 |       0.9999 |xxxxxxxxxxxxx |xxxxxxxxxxxxx |xxxxxxxxxxxxx |xxxxxxxxxxxxx |       1.0000 |       1.0000 |       1.0000 |xxxxxxxxxxxxx |xxxxxxxxxxxxx |xxxxxxxxxxxxx |xxxxxxxxxxxxx |       1.0000 |       1.0000 |       1.0000 |xxxxxxxxxxxxx |xxxxxxxxxxxxx |xxxxxxxxxxxxx |xxxxxxxxxxxxx |       1.0000 |       1.0000 |       1.0000 |xxxxxxxxxxxxx |xxxxxxxxxxxxx |xxxxxxxxxxxxx |xxxxxxxxxxxxx |       1.0000 |       1.0000 |       1.0000 |xxxxxxxxxxxxx |xxxxxxxxxxxxx |xxxxxxxxxxxxx |xxxxxxxxxxxxx |       1.0000 |       1.0000 |       1.0000 |xxxxxxxxxxxxx |xxxxxxxxxxxxx |xxxxxxxxxxxxx |xxxxxxxxxxxxx |       1.0000 |       1.0000 |       1.0000 |xxxxxxxxxxxxx |xxxxxxxxxxxxx |xxxxxxxxxxxxx |xxxxxxxxxxxxx |       1.0000 |       1.0000 |       1.0000 |xxxxxxxxxxxxx |xxxxxxxxxxxxx |xxxxxxxxxxxxx |xxxxxxxxxxxxx |       1.0000 |       1.0000 |       1.0000 |xxxxxxxxxxxxx |xxxxxxxxxxxxx |xxxxxxxxxxxxx |xxxxxxxxxxxxx |       1.0000 |       1.0000 |       1.0000 |
bpred_2lev.lookups                   xxxxxxxxxxxxx |xxxxxxxxxxxxx |xxxxxxxxxxxxx |       125483 |       125483 |       125483 |       125483 |xxxxxxxxxxxxx |xxxxxxxxxxxxx |xxxxxxxxxxxxx |       265789 |       265789 |       265789 |       265789 |xxxxxxxxxxxxx |xxxxxxxxxxxxx |xxxxxxxxxxxxx |       559574 |       559574 |       559574 |       559574 |xxxxxxxxxxxxx |xxxxxxxxxxxxx |xxxxxxxxxxxxx |      1186235 |      1186235 |      1186235 |      1186235 |xxxxxxxxxxxxx |xxxxxxxxxxxxx |xxxxxxxxxxxxx |      2493454 |      2493454 |      2493454 |      2493454 |xxxxxxxxxxxxx |xxxxxxxxxxxxx |xxxxxxxxxxxxx |      5266736 |      5266736 |      5266736 |      5266736 |xxxxxxxxxxxxx |xxxxxxxxxxxxx |xxxxxxxxxxxxx |     11022022 |     11022022 |     11022022 |     11022022 |xxxxxxxxxxxxx |xxxxxxxxxxxxx |xxxxxxxxxxxxx |     23157689 |     23157689 |     23157689 |     23157689 |xxxxxxxxxxxxx |xxxxxxxxxxxxx |xxxxxxxxxxxxx |     48276208 |     48276208 |     48276208 |     48276208 |xxxxxxxxxxxxx |xxxxxxxxxxxxx |xxxxxxxxxxxxx |    101017697 |    101017697 |    101017697 |    101017697 |xxxxxxxxxxxxx |xxxxxxxxxxxxx |xxxxxxxxxxxxx |    209909353 |    209909353 |    209909353 |    209909353 |
[...]
bpred_2lev.retstack_pushes           xxxxxxxxxxxxx |xxxxxxxxxxxxx |xxxxxxxxxxxxx |         8569 |         8569 |         8569 |         8569 |xxxxxxxxxxxxx |xxxxxxxxxxxxx |xxxxxxxxxxxxx |        16763 |        16763 |        16763 |        16763 |xxxxxxxxxxxxx |xxxxxxxxxxxxx |xxxxxxxxxxxxx |        33145 |        33145 |        33145 |        33145 |xxxxxxxxxxxxx |xxxxxxxxxxxxx |xxxxxxxxxxxxx |        65915 |        65915 |        65915 |        65915 |xxxxxxxxxxxxx |xxxxxxxxxxxxx |xxxxxxxxxxxxx |       131449 |       131449 |       131449 |       131449 |xxxxxxxxxxxxx |xxxxxxxxxxxxx |xxxxxxxxxxxxx |       262523 |       262523 |       262523 |       262523 |xxxxxxxxxxxxx |xxxxxxxxxxxxx |xxxxxxxxxxxxx |       524665 |       524665 |       524665 |       524665 |xxxxxxxxxxxxx |xxxxxxxxxxxxx |xxxxxxxxxxxxx |      1048957 |      1048957 |      1048957 |      1048957 |xxxxxxxxxxxxx |xxxxxxxxxxxxx |xxxxxxxxxxxxx |      2097531 |      2097531 |      2097531 |      2097531 |xxxxxxxxxxxxx |xxxxxxxxxxxxx |xxxxxxxxxxxxx |      4194685 |      4194685 |      4194685 |      4194685 |xxxxxxxxxxxxx |xxxxxxxxxxxxx |xxxxxxxxxxxxx |      8388987 |      8388987 |      8388987 |      8388987 |
bpred_2lev.retstack_pops             xxxxxxxxxxxxx |xxxxxxxxxxxxx |xxxxxxxxxxxxx |         8567 |         8567 |         8567 |         8567 |xxxxxxxxxxxxx |xxxxxxxxxxxxx |xxxxxxxxxxxxx |        16761 |        16761 |        16761 |        16761 |xxxxxxxxxxxxx |xxxxxxxxxxxxx |xxxxxxxxxxxxx |        33143 |        33143 |        33143 |        33143 |xxxxxxxxxxxxx |xxxxxxxxxxxxx |xxxxxxxxxxxxx |        65913 |        65913 |        65913 |        65913 |xxxxxxxxxxxxx |xxxxxxxxxxxxx |xxxxxxxxxxxxx |       131447 |       131447 |       131447 |       131447 |xxxxxxxxxxxxx |xxxxxxxxxxxxx |xxxxxxxxxxxxx |       262521 |       262521 |       262521 |       262521 |xxxxxxxxxxxxx |xxxxxxxxxxxxx |xxxxxxxxxxxxx |       524663 |       524663 |       524663 |       524663 |xxxxxxxxxxxxx |xxxxxxxxxxxxx |xxxxxxxxxxxxx |      1048955 |      1048955 |      1048955 |      1048955 |xxxxxxxxxxxxx |xxxxxxxxxxxxx |xxxxxxxxxxxxx |      2097529 |      2097529 |      2097529 |      2097529 |xxxxxxxxxxxxx |xxxxxxxxxxxxx |xxxxxxxxxxxxx |      4194683 |      4194683 |      4194683 |      4194683 |xxxxxxxxxxxxx |xxxxxxxxxxxxx |xxxxxxxxxxxxx |      8388985 |      8388985 |      8388985 |      8388985 |
bpred_2lev.used_ras.PP               xxxxxxxxxxxxx |xxxxxxxxxxxxx |xxxxxxxxxxxxx |         8567 |         8567 |         8567 |         8567 |xxxxxxxxxxxxx |xxxxxxxxxxxxx |xxxxxxxxxxxxx |        16761 |        16761 |        16761 |        16761 |xxxxxxxxxxxxx |xxxxxxxxxxxxx |xxxxxxxxxxxxx |        33143 |        33143 |        33143 |        33143 |xxxxxxxxxxxxx |xxxxxxxxxxxxx |xxxxxxxxxxxxx |        65913 |        65913 |        65913 |        65913 |xxxxxxxxxxxxx |xxxxxxxxxxxxx |xxxxxxxxxxxxx |       131447 |       131447 |       131447 |       131447 |xxxxxxxxxxxxx |xxxxxxxxxxxxx |xxxxxxxxxxxxx |       262521 |       262521 |       262521 |       262521 |xxxxxxxxxxxxx |xxxxxxxxxxxxx |xxxxxxxxxxxxx |       524663 |       524663 |       524663 |       524663 |xxxxxxxxxxxxx |xxxxxxxxxxxxx |xxxxxxxxxxxxx |      1048955 |      1048955 |      1048955 |      1048955 |xxxxxxxxxxxxx |xxxxxxxxxxxxx |xxxxxxxxxxxxx |      2097529 |      2097529 |      2097529 |      2097529 |xxxxxxxxxxxxx |xxxxxxxxxxxxx |xxxxxxxxxxxxx |      4194683 |      4194683 |      4194683 |      4194683 |xxxxxxxxxxxxx |xxxxxxxxxxxxx |xxxxxxxxxxxxx |      8388985 |      8388985 |      8388985 |      8388985 |
bpred_2lev.ras_hits.PP               xxxxxxxxxxxxx |xxxxxxxxxxxxx |xxxxxxxxxxxxx |         8566 |         8566 |         8566 |         8566 |xxxxxxxxxxxxx |xxxxxxxxxxxxx |xxxxxxxxxxxxx |        16760 |        16760 |        16760 |        16760 |xxxxxxxxxxxxx |xxxxxxxxxxxxx |xxxxxxxxxxxxx |        33142 |        33142 |        33142 |        33142 |xxxxxxxxxxxxx |xxxxxxxxxxxxx |xxxxxxxxxxxxx |        65912 |        65912 |        65912 |        65912 |xxxxxxxxxxxxx |xxxxxxxxxxxxx |xxxxxxxxxxxxx |       131446 |       131446 |       131446 |       131446 |xxxxxxxxxxxxx |xxxxxxxxxxxxx |xxxxxxxxxxxxx |       262520 |       262520 |       262520 |       262520 |xxxxxxxxxxxxx |xxxxxxxxxxxxx |xxxxxxxxxxxxx |       524662 |       524662 |       524662 |       524662 |xxxxxxxxxxxxx |xxxxxxxxxxxxx |xxxxxxxxxxxxx |      1048955 |      1048955 |      1048955 |      1048955 |xxxxxxxxxxxxx |xxxxxxxxxxxxx |xxxxxxxxxxxxx |      2097529 |      2097529 |      2097529 |      2097529 |xxxxxxxxxxxxx |xxxxxxxxxxxxx |xxxxxxxxxxxxx |      4194683 |      4194683 |      4194683 |      4194683 |xxxxxxxxxxxxx |xxxxxxxxxxxxx |xxxxxxxxxxxxx |      8388985 |      8388985 |      8388985 |      8388985 |
bpred_2lev.ras_rate.PP               xxxxxxxxxxxxx |xxxxxxxxxxxxx |xxxxxxxxxxxxx |       0.9999 |       0.9999 |       0.9999 |       0.9999 |xxxxxxxxxxxxx |xxxxxxxxxxxxx |xxxxxxxxxxxxx |       0.9999 |       0.9999 |       0.9999 |       0.9999 |xxxxxxxxxxxxx |xxxxxxxxxxxxx |xxxxxxxxxxxxx |       1.0000 |       1.0000 |       1.0000 |       1.0000 |xxxxxxxxxxxxx |xxxxxxxxxxxxx |xxxxxxxxxxxxx |       1.0000 |       1.0000 |       1.0000 |       1.0000 |xxxxxxxxxxxxx |xxxxxxxxxxxxx |xxxxxxxxxxxxx |       1.0000 |       1.0000 |       1.0000 |       1.0000 |xxxxxxxxxxxxx |xxxxxxxxxxxxx |xxxxxxxxxxxxx |       1.0000 |       1.0000 |       1.0000 |       1.0000 |xxxxxxxxxxxxx |xxxxxxxxxxxxx |xxxxxxxxxxxxx |       1.0000 |       1.0000 |       1.0000 |       1.0000 |xxxxxxxxxxxxx |xxxxxxxxxxxxx |xxxxxxxxxxxxx |       1.0000 |       1.0000 |       1.0000 |       1.0000 |xxxxxxxxxxxxx |xxxxxxxxxxxxx |xxxxxxxxxxxxx |       1.0000 |       1.0000 |       1.0000 |       1.0000 |xxxxxxxxxxxxx |xxxxxxxxxxxxx |xxxxxxxxxxxxx |       1.0000 |       1.0000 |       1.0000 |       1.0000 |xxxxxxxxxxxxx |xxxxxxxxxxxxx |xxxxxxxxxxxxx |       1.0000 |       1.0000 |       1.0000 |       1.0000 |

Command list: 
	sslittle-na-sstrix-gcc -Wall -O3 -funroll-loops -finline-functions  -DRANDOM_SIZE=4096 -DSEED=0 -DSORT=tiled_mergesort tiled_mergesort1314271029.c simpleMain.c -o tiled_mergesort834609531
	sim-cache -cache:dl1 dl1:256:32:1:l -cache:dl2 dl2:131072:32:1:l -cache:il1 il1:256:32:1:l -cache:il2 dl2 tiled_mergesort834609531
	sim-cache -cache:dl1 dl1:256:32:1:l -cache:dl2 dl2:65536:32:1:l -cache:il1 il1:256:32:1:l -cache:il2 dl2 tiled_mergesort834609531
	sim-cache -cache:dl1 dl1:1:32:256:l -cache:dl2 dl2:1:32:131072:l -cache:il1 il1:1:32:256:l -cache:il2 dl2 tiled_mergesort834609531
	sim-cache -cache:dl1 dl1:1:32:256:l -cache:dl2 dl2:1:32:65536:l -cache:il1 il1:1:32:256:l -cache:il2 dl2 tiled_mergesort834609531
	sim-bpred -bpred bimod -bpred:bimod 512 tiled_mergesort834609531
	sim-bpred -bpred bimod -bpred:bimod 1024 tiled_mergesort834609531
	sim-bpred -bpred bimod -bpred:bimod 2048 tiled_mergesort834609531
	sim-bpred -bpred 2lev -bpred:2lev 1 512 10 1 tiled_mergesort834609531
	sim-bpred -bpred 2lev -bpred:2lev 1 1024 10 1 tiled_mergesort834609531
	sim-bpred -bpred 2lev -bpred:2lev 1 2048 10 1 tiled_mergesort834609531
	sim-bpred -bpred 2lev -bpred:2lev 1 4096 10 1 tiled_mergesort834609531
	sslittle-na-sstrix-gcc -Wall -O3 -funroll-loops -finline-functions  -DRANDOM_SIZE=8192 -DSEED=0 -DSORT=tiled_mergesort tiled_mergesort1314271029.c simpleMain.c -o tiled_mergesort834609531
	sim-cache -cache:dl1 dl1:256:32:1:l -cache:dl2 dl2:131072:32:1:l -cache:il1 il1:256:32:1:l -cache:il2 dl2 tiled_mergesort834609531
	sim-cache -cache:dl1 dl1:256:32:1:l -cache:dl2 dl2:65536:32:1:l -cache:il1 il1:256:32:1:l -cache:il2 dl2 tiled_mergesort834609531
	sim-cache -cache:dl1 dl1:1:32:256:l -cache:dl2 dl2:1:32:131072:l -cache:il1 il1:1:32:256:l -cache:il2 dl2 tiled_mergesort834609531
	sim-cache -cache:dl1 dl1:1:32:256:l -cache:dl2 dl2:1:32:65536:l -cache:il1 il1:1:32:256:l -cache:il2 dl2 tiled_mergesort834609531
	sim-bpred -bpred bimod -bpred:bimod 512 tiled_mergesort834609531
	sim-bpred -bpred bimod -bpred:bimod 1024 tiled_mergesort834609531
	sim-bpred -bpred bimod -bpred:bimod 2048 tiled_mergesort834609531
	sim-bpred -bpred 2lev -bpred:2lev 1 512 10 1 tiled_mergesort834609531
	sim-bpred -bpred 2lev -bpred:2lev 1 1024 10 1 tiled_mergesort834609531
	sim-bpred -bpred 2lev -bpred:2lev 1 2048 10 1 tiled_mergesort834609531
	sim-bpred -bpred 2lev -bpred:2lev 1 4096 10 1 tiled_mergesort834609531
	sslittle-na-sstrix-gcc -Wall -O3 -funroll-loops -finline-functions  -DRANDOM_SIZE=16384 -DSEED=0 -DSORT=tiled_mergesort tiled_mergesort1314271029.c simpleMain.c -o tiled_mergesort834609531
	sim-cache -cache:dl1 dl1:256:32:1:l -cache:dl2 dl2:131072:32:1:l -cache:il1 il1:256:32:1:l -cache:il2 dl2 tiled_mergesort834609531
	sim-cache -cache:dl1 dl1:256:32:1:l -cache:dl2 dl2:65536:32:1:l -cache:il1 il1:256:32:1:l -cache:il2 dl2 tiled_mergesort834609531
	sim-cache -cache:dl1 dl1:1:32:256:l -cache:dl2 dl2:1:32:131072:l -cache:il1 il1:1:32:256:l -cache:il2 dl2 tiled_mergesort834609531
	sim-cache -cache:dl1 dl1:1:32:256:l -cache:dl2 dl2:1:32:65536:l -cache:il1 il1:1:32:256:l -cache:il2 dl2 tiled_mergesort834609531
	sim-bpred -bpred bimod -bpred:bimod 512 tiled_mergesort834609531
	sim-bpred -bpred bimod -bpred:bimod 1024 tiled_mergesort834609531
	sim-bpred -bpred bimod -bpred:bimod 2048 tiled_mergesort834609531
	sim-bpred -bpred 2lev -bpred:2lev 1 512 10 1 tiled_mergesort834609531
	sim-bpred -bpred 2lev -bpred:2lev 1 1024 10 1 tiled_mergesort834609531
	sim-bpred -bpred 2lev -bpred:2lev 1 2048 10 1 tiled_mergesort834609531
	sim-bpred -bpred 2lev -bpred:2lev 1 4096 10 1 tiled_mergesort834609531
	sslittle-na-sstrix-gcc -Wall -O3 -funroll-loops -finline-functions  -DRANDOM_SIZE=32768 -DSEED=0 -DSORT=tiled_mergesort tiled_mergesort1314271029.c simpleMain.c -o tiled_mergesort834609531
	sim-cache -cache:dl1 dl1:256:32:1:l -cache:dl2 dl2:131072:32:1:l -cache:il1 il1:256:32:1:l -cache:il2 dl2 tiled_mergesort834609531
	sim-cache -cache:dl1 dl1:256:32:1:l -cache:dl2 dl2:65536:32:1:l -cache:il1 il1:256:32:1:l -cache:il2 dl2 tiled_mergesort834609531
	sim-cache -cache:dl1 dl1:1:32:256:l -cache:dl2 dl2:1:32:131072:l -cache:il1 il1:1:32:256:l -cache:il2 dl2 tiled_mergesort834609531
	sim-cache -cache:dl1 dl1:1:32:256:l -cache:dl2 dl2:1:32:65536:l -cache:il1 il1:1:32:256:l -cache:il2 dl2 tiled_mergesort834609531
	sim-bpred -bpred bimod -bpred:bimod 512 tiled_mergesort834609531
	sim-bpred -bpred bimod -bpred:bimod 1024 tiled_mergesort834609531
	sim-bpred -bpred bimod -bpred:bimod 2048 tiled_mergesort834609531
	sim-bpred -bpred 2lev -bpred:2lev 1 512 10 1 tiled_mergesort834609531
	sim-bpred -bpred 2lev -bpred:2lev 1 1024 10 1 tiled_mergesort834609531
	sim-bpred -bpred 2lev -bpred:2lev 1 2048 10 1 tiled_mergesort834609531
	sim-bpred -bpred 2lev -bpred:2lev 1 4096 10 1 tiled_mergesort834609531
	sslittle-na-sstrix-gcc -Wall -O3 -funroll-loops -finline-functions  -DRANDOM_SIZE=65536 -DSEED=0 -DSORT=tiled_mergesort tiled_mergesort1314271029.c simpleMain.c -o tiled_mergesort834609531
	sim-cache -cache:dl1 dl1:256:32:1:l -cache:dl2 dl2:131072:32:1:l -cache:il1 il1:256:32:1:l -cache:il2 dl2 tiled_mergesort834609531
	sim-cache -cache:dl1 dl1:256:32:1:l -cache:dl2 dl2:65536:32:1:l -cache:il1 il1:256:32:1:l -cache:il2 dl2 tiled_mergesort834609531
	sim-cache -cache:dl1 dl1:1:32:256:l -cache:dl2 dl2:1:32:131072:l -cache:il1 il1:1:32:256:l -cache:il2 dl2 tiled_mergesort834609531
	sim-cache -cache:dl1 dl1:1:32:256:l -cache:dl2 dl2:1:32:65536:l -cache:il1 il1:1:32:256:l -cache:il2 dl2 tiled_mergesort834609531
	sim-bpred -bpred bimod -bpred:bimod 512 tiled_mergesort834609531
	sim-bpred -bpred bimod -bpred:bimod 1024 tiled_mergesort834609531
	sim-bpred -bpred bimod -bpred:bimod 2048 tiled_mergesort834609531
	sim-bpred -bpred 2lev -bpred:2lev 1 512 10 1 tiled_mergesort834609531
	sim-bpred -bpred 2lev -bpred:2lev 1 1024 10 1 tiled_mergesort834609531
	sim-bpred -bpred 2lev -bpred:2lev 1 2048 10 1 tiled_mergesort834609531
	sim-bpred -bpred 2lev -bpred:2lev 1 4096 10 1 tiled_mergesort834609531
	sslittle-na-sstrix-gcc -Wall -O3 -funroll-loops -finline-functions  -DRANDOM_SIZE=131072 -DSEED=0 -DSORT=tiled_mergesort tiled_mergesort1314271029.c simpleMain.c -o tiled_mergesort834609531
	sim-cache -cache:dl1 dl1:256:32:1:l -cache:dl2 dl2:131072:32:1:l -cache:il1 il1:256:32:1:l -cache:il2 dl2 tiled_mergesort834609531
	sim-cache -cache:dl1 dl1:256:32:1:l -cache:dl2 dl2:65536:32:1:l -cache:il1 il1:256:32:1:l -cache:il2 dl2 tiled_mergesort834609531
	sim-cache -cache:dl1 dl1:1:32:256:l -cache:dl2 dl2:1:32:131072:l -cache:il1 il1:1:32:256:l -cache:il2 dl2 tiled_mergesort834609531
	sim-cache -cache:dl1 dl1:1:32:256:l -cache:dl2 dl2:1:32:65536:l -cache:il1 il1:1:32:256:l -cache:il2 dl2 tiled_mergesort834609531
	sim-bpred -bpred bimod -bpred:bimod 512 tiled_mergesort834609531
	sim-bpred -bpred bimod -bpred:bimod 1024 tiled_mergesort834609531
	sim-bpred -bpred bimod -bpred:bimod 2048 tiled_mergesort834609531
	sim-bpred -bpred 2lev -bpred:2lev 1 512 10 1 tiled_mergesort834609531
	sim-bpred -bpred 2lev -bpred:2lev 1 1024 10 1 tiled_mergesort834609531
	sim-bpred -bpred 2lev -bpred:2lev 1 2048 10 1 tiled_mergesort834609531
	sim-bpred -bpred 2lev -bpred:2lev 1 4096 10 1 tiled_mergesort834609531
	sslittle-na-sstrix-gcc -Wall -O3 -funroll-loops -finline-functions  -DRANDOM_SIZE=262144 -DSEED=0 -DSORT=tiled_mergesort tiled_mergesort1314271029.c simpleMain.c -o tiled_mergesort834609531
	sim-cache -cache:dl1 dl1:256:32:1:l -cache:dl2 dl2:131072:32:1:l -cache:il1 il1:256:32:1:l -cache:il2 dl2 tiled_mergesort834609531
	sim-cache -cache:dl1 dl1:256:32:1:l -cache:dl2 dl2:65536:32:1:l -cache:il1 il1:256:32:1:l -cache:il2 dl2 tiled_mergesort834609531
	sim-cache -cache:dl1 dl1:1:32:256:l -cache:dl2 dl2:1:32:131072:l -cache:il1 il1:1:32:256:l -cache:il2 dl2 tiled_mergesort834609531
	sim-cache -cache:dl1 dl1:1:32:256:l -cache:dl2 dl2:1:32:65536:l -cache:il1 il1:1:32:256:l -cache:il2 dl2 tiled_mergesort834609531
	sim-bpred -bpred bimod -bpred:bimod 512 tiled_mergesort834609531
	sim-bpred -bpred bimod -bpred:bimod 1024 tiled_mergesort834609531
	sim-bpred -bpred bimod -bpred:bimod 2048 tiled_mergesort834609531
	sim-bpred -bpred 2lev -bpred:2lev 1 512 10 1 tiled_mergesort834609531
	sim-bpred -bpred 2lev -bpred:2lev 1 1024 10 1 tiled_mergesort834609531
	sim-bpred -bpred 2lev -bpred:2lev 1 2048 10 1 tiled_mergesort834609531
	sim-bpred -bpred 2lev -bpred:2lev 1 4096 10 1 tiled_mergesort834609531
	sslittle-na-sstrix-gcc -Wall -O3 -funroll-loops -finline-functions  -DRANDOM_SIZE=524288 -DSEED=0 -DSORT=tiled_mergesort tiled_mergesort1314271029.c simpleMain.c -o tiled_mergesort834609531
	sim-cache -cache:dl1 dl1:256:32:1:l -cache:dl2 dl2:131072:32:1:l -cache:il1 il1:256:32:1:l -cache:il2 dl2 tiled_mergesort834609531
	sim-cache -cache:dl1 dl1:256:32:1:l -cache:dl2 dl2:65536:32:1:l -cache:il1 il1:256:32:1:l -cache:il2 dl2 tiled_mergesort834609531
	sim-cache -cache:dl1 dl1:1:32:256:l -cache:dl2 dl2:1:32:131072:l -cache:il1 il1:1:32:256:l -cache:il2 dl2 tiled_mergesort834609531
	sim-cache -cache:dl1 dl1:1:32:256:l -cache:dl2 dl2:1:32:65536:l -cache:il1 il1:1:32:256:l -cache:il2 dl2 tiled_mergesort834609531
	sim-bpred -bpred bimod -bpred:bimod 512 tiled_mergesort834609531
	sim-bpred -bpred bimod -bpred:bimod 1024 tiled_mergesort834609531
	sim-bpred -bpred bimod -bpred:bimod 2048 tiled_mergesort834609531
	sim-bpred -bpred 2lev -bpred:2lev 1 512 10 1 tiled_mergesort834609531
	sim-bpred -bpred 2lev -bpred:2lev 1 1024 10 1 tiled_mergesort834609531
	sim-bpred -bpred 2lev -bpred:2lev 1 2048 10 1 tiled_mergesort834609531
	sim-bpred -bpred 2lev -bpred:2lev 1 4096 10 1 tiled_mergesort834609531
	sslittle-na-sstrix-gcc -Wall -O3 -funroll-loops -finline-functions  -DRANDOM_SIZE=1048576 -DSEED=0 -DSORT=tiled_mergesort tiled_mergesort1314271029.c simpleMain.c -o tiled_mergesort834609531
	sim-cache -cache:dl1 dl1:256:32:1:l -cache:dl2 dl2:131072:32:1:l -cache:il1 il1:256:32:1:l -cache:il2 dl2 tiled_mergesort834609531
	sim-cache -cache:dl1 dl1:256:32:1:l -cache:dl2 dl2:65536:32:1:l -cache:il1 il1:256:32:1:l -cache:il2 dl2 tiled_mergesort834609531
	sim-cache -cache:dl1 dl1:1:32:256:l -cache:dl2 dl2:1:32:131072:l -cache:il1 il1:1:32:256:l -cache:il2 dl2 tiled_mergesort834609531
	sim-cache -cache:dl1 dl1:1:32:256:l -cache:dl2 dl2:1:32:65536:l -cache:il1 il1:1:32:256:l -cache:il2 dl2 tiled_mergesort834609531
	sim-bpred -bpred bimod -bpred:bimod 512 tiled_mergesort834609531
	sim-bpred -bpred bimod -bpred:bimod 1024 tiled_mergesort834609531
	sim-bpred -bpred bimod -bpred:bimod 2048 tiled_mergesort834609531
	sim-bpred -bpred 2lev -bpred:2lev 1 512 10 1 tiled_mergesort834609531
	sim-bpred -bpred 2lev -bpred:2lev 1 1024 10 1 tiled_mergesort834609531
	sim-bpred -bpred 2lev -bpred:2lev 1 2048 10 1 tiled_mergesort834609531
	sim-bpred -bpred 2lev -bpred:2lev 1 4096 10 1 tiled_mergesort834609531
	sslittle-na-sstrix-gcc -Wall -O3 -funroll-loops -finline-functions  -DRANDOM_SIZE=2097152 -DSEED=0 -DSORT=tiled_mergesort tiled_mergesort1314271029.c simpleMain.c -o tiled_mergesort834609531
	sim-cache -cache:dl1 dl1:256:32:1:l -cache:dl2 dl2:131072:32:1:l -cache:il1 il1:256:32:1:l -cache:il2 dl2 tiled_mergesort834609531
	sim-cache -cache:dl1 dl1:256:32:1:l -cache:dl2 dl2:65536:32:1:l -cache:il1 il1:256:32:1:l -cache:il2 dl2 tiled_mergesort834609531
	sim-cache -cache:dl1 dl1:1:32:256:l -cache:dl2 dl2:1:32:131072:l -cache:il1 il1:1:32:256:l -cache:il2 dl2 tiled_mergesort834609531
	sim-cache -cache:dl1 dl1:1:32:256:l -cache:dl2 dl2:1:32:65536:l -cache:il1 il1:1:32:256:l -cache:il2 dl2 tiled_mergesort834609531
	sim-bpred -bpred bimod -bpred:bimod 512 tiled_mergesort834609531
	sim-bpred -bpred bimod -bpred:bimod 1024 tiled_mergesort834609531
	sim-bpred -bpred bimod -bpred:bimod 2048 tiled_mergesort834609531
	sim-bpred -bpred 2lev -bpred:2lev 1 512 10 1 tiled_mergesort834609531
	sim-bpred -bpred 2lev -bpred:2lev 1 1024 10 1 tiled_mergesort834609531
	sim-bpred -bpred 2lev -bpred:2lev 1 2048 10 1 tiled_mergesort834609531
	sim-bpred -bpred 2lev -bpred:2lev 1 4096 10 1 tiled_mergesort834609531
	sslittle-na-sstrix-gcc -Wall -O3 -funroll-loops -finline-functions  -DRANDOM_SIZE=4194304 -DSEED=0 -DSORT=tiled_mergesort tiled_mergesort1314271029.c simpleMain.c -o tiled_mergesort834609531
	sim-cache -cache:dl1 dl1:256:32:1:l -cache:dl2 dl2:131072:32:1:l -cache:il1 il1:256:32:1:l -cache:il2 dl2 tiled_mergesort834609531
	sim-cache -cache:dl1 dl1:256:32:1:l -cache:dl2 dl2:65536:32:1:l -cache:il1 il1:256:32:1:l -cache:il2 dl2 tiled_mergesort834609531
	sim-cache -cache:dl1 dl1:1:32:256:l -cache:dl2 dl2:1:32:131072:l -cache:il1 il1:1:32:256:l -cache:il2 dl2 tiled_mergesort834609531
	sim-cache -cache:dl1 dl1:1:32:256:l -cache:dl2 dl2:1:32:65536:l -cache:il1 il1:1:32:256:l -cache:il2 dl2 tiled_mergesort834609531
	sim-bpred -bpred bimod -bpred:bimod 512 tiled_mergesort834609531
	sim-bpred -bpred bimod -bpred:bimod 1024 tiled_mergesort834609531
	sim-bpred -bpred bimod -bpred:bimod 2048 tiled_mergesort834609531
	sim-bpred -bpred 2lev -bpred:2lev 1 512 10 1 tiled_mergesort834609531
	sim-bpred -bpred 2lev -bpred:2lev 1 1024 10 1 tiled_mergesort834609531
	sim-bpred -bpred 2lev -bpred:2lev 1 2048 10 1 tiled_mergesort834609531
	sim-bpred -bpred 2lev -bpred:2lev 1 4096 10 1 tiled_mergesort834609531
