#set_size_in_keys sim_num_insn sim_num_refs sim_elapsed_time sim_inst_rate sim_num_branches sim_IPB bpred_bimod.lookups bpred_bimod.updates bpred_bimod.addr_hits bpred_bimod.dir_hits bpred_bimod.misses bpred_bimod.jr_hits bpred_bimod.jr_seen bpred_bimod.jr_non_ras_hits.PP bpred_bimod.jr_non_ras_seen.PP bpred_bimod.bpred_addr_rate bpred_bimod.bpred_dir_rate bpred_bimod.bpred_jr_rate bpred_bimod.bpred_jr_non_ras_rate.PP bpred_bimod.retstack_pushes bpred_bimod.retstack_pops bpred_bimod.used_ras.PP bpred_bimod.ras_hits.PP bpred_bimod.ras_rate.PP
4096 149.82568359375 46.43408203125 0.000244140625 613686.0000 26.4423828125 5.6661 26.4423828125 26.4423828125 20.654052734375 20.682861328125 5.759521484375 2.08984375 2.08984375 0 0 0.7811 0.7822 1.0000 <error: 2.09033203125 2.08984375 2.08984375 2.08984375 1.0000 
8192 157.938842773438 47.6597900390625 0.0001220703125 1293835.0000 27.884765625 5.6640 27.884765625 27.884765625 21.7784423828125 21.7928466796875 6.0919189453125 2.044921875 2.044921875 0 0 0.7810 0.7815 1.0000 <error: 2.045166015625 2.044921875 2.044921875 2.044921875 1.0000 
16384 164.471801757812 48.9502563476562 6.103515625e-05 2694706.0000 29.1170654296875 5.6486 29.1170654296875 29.1170654296875 22.7156982421875 22.7230834960938 6.39398193359375 2.0224609375 2.0224609375 0 0 0.7802 0.7804 1.0000 <error: 2.0225830078125 2.0224609375 2.0224609375 2.0224609375 1.0000 
32768 172.209411621094 50.7384033203125 3.0517578125e-05 5642958.0000 30.5123901367188 5.6439 30.5123901367188 30.5123901367188 23.5401916503906 23.5438537597656 6.96853637695312 2.01123046875 2.01123046875 0 0 0.7715 0.7716 1.0000 <error: 2.01129150390625 2.01123046875 2.01123046875 2.01123046875 1.0000 
65536 181.279022216797 52.7801208496094 4.57763671875e-05 3960100.6667 32.1385345458984 5.6406 32.1385345458984 32.1385345458984 24.7439880371094 24.7458190917969 7.39271545410156 2.005615234375 2.005615234375 0 0 0.7699 0.7700 1.0000 <error: 2.00564575195312 2.005615234375 2.005615234375 2.005615234375 1.0000 
131072 192.712158203125 55.2062911987305 5.340576171875e-05 3608452.5714 34.1823348999023 5.6378 34.1823348999023 34.1823348999023 26.4701690673828 26.4710693359375 7.71126556396484 2.0028076171875 2.0028076171875 0 0 0.7744 0.7744 1.0000 <error: 2.00282287597656 2.0028076171875 2.0028076171875 2.0028076171875 1.0000 
262144 199.144222259521 56.934383392334 4.9591064453125e-05 4015727.9231 35.4098587036133 5.6240 35.4098587036133 35.4098587036133 27.1731910705566 27.173641204834 8.2362174987793 2.00140380859375 2.00140380859375 0 0 0.7674 0.7674 1.0000 <error: 2.00141143798828 2.00140380859375 2.00140380859375 2.00140380859375 1.0000 
524288 211.162061691284 59.4367847442627 5.14984130859375e-05 4100360.5556 37.4773502349854 5.6344 37.4773502349854 37.4773502349854 28.9095096588135 28.909740447998 8.5676097869873 2.00070190429688 2.00070190429688 0 0 0.7714 0.7714 1.0000 <error: 2.00070571899414 2.00070190429688 2.00070190429688 2.00070190429688 1.0000 
1048576 218.319078445435 61.2680444717407 5.340576171875e-05 4087931.1786 38.8077297210693 5.6257 38.8077297210693 38.8077297210693 29.7548513412476 29.7549638748169 9.05276584625244 2.00035095214844 2.00035095214844 0 0 0.7667 0.7667 1.0000 <error: 2.00035285949707 2.00035095214844 2.00035095214844 2.00035095214844 1.0000 
2097152 227.857602596283 63.4473314285278 5.48362731933594e-05 4155235.0174 40.5232601165771 5.6229 40.5232601165771 40.5232601165771 31.0579781532288 31.0580353736877 9.4652247428894 2.00017547607422 2.00017547607422 0 0 0.7664 0.7664 1.0000 <error: 2.00017642974854 2.00017547607422 2.00017547607422 2.00017547607422 1.0000 
4194304 235.0847427845 65.2917680740356 5.7220458984375e-05 4108403.6542 41.8484318256378 5.6175 41.8484318256378 41.8484318256378 31.8382740020752 31.8383026123047 10.0101292133331 2.00008773803711 2.00008773803711 0 0 0.7608 0.7608 1.0000 <error: 2.00008821487427 2.00008773803711 2.00008773803711 2.00008773803711 1.0000 
