#set_size_in_keys sim_num_insn sim_num_refs sim_elapsed_time sim_inst_rate sim_num_branches sim_IPB bpred_2lev.lookups bpred_2lev.updates bpred_2lev.addr_hits bpred_2lev.dir_hits bpred_2lev.misses bpred_2lev.jr_hits bpred_2lev.jr_seen bpred_2lev.jr_non_ras_hits.PP bpred_2lev.jr_non_ras_seen.PP bpred_2lev.bpred_addr_rate bpred_2lev.bpred_dir_rate bpred_2lev.bpred_jr_rate bpred_2lev.bpred_jr_non_ras_rate.PP bpred_2lev.retstack_pushes bpred_2lev.retstack_pops bpred_2lev.used_ras.PP bpred_2lev.ras_hits.PP bpred_2lev.ras_rate.PP
4096 114.7080078125 30.536376953125 0.000244140625 469844.0000 18.73046875 6.1241 18.73046875 18.73046875 12.6708984375 12.701171875 6.029296875 0.12060546875 0.12060546875 0 0 0.6765 0.6781 1.0000 <error: 0.12109375 0.12060546875 0.12060546875 0.12060546875 1.0000 
8192 125.51171875 32.5897216796875 0.0001220703125 1028192.0000 20.6409912109375 6.0807 20.6409912109375 20.6409912109375 14.1329345703125 14.148193359375 6.4927978515625 0.1163330078125 0.1163330078125 0 0 0.6847 0.6854 1.0000 <error: 0.1165771484375 0.1163330078125 0.1163330078125 0.1163330078125 1.0000 
16384 133.111877441406 34.3187255859375 6.103515625e-05 2180905.0000 22.0948486328125 6.0246 22.0948486328125 22.0948486328125 15.2401733398438 15.247314453125 6.8475341796875 0.110595703125 0.110595703125 0 0 0.6898 0.6901 1.0000 <error: 0.1107177734375 0.110595703125 0.110595703125 0.110595703125 1.0000 
32768 143.474914550781 36.4635925292969 3.0517578125e-05 4701386.0000 23.9209594726562 5.9979 23.9209594726562 23.9209594726562 16.6984252929688 16.7022705078125 7.21868896484375 0.110137939453125 0.110137939453125 0 0 0.6981 0.6982 1.0000 <error: 0.110198974609375 0.110137939453125 0.110137939453125 0.110137939453125 1.0000 
65536 153.65022277832 38.7734375 3.0517578125e-05 5034810.5000 25.7666625976562 5.9631 25.7666625976562 25.7666625976562 17.9795074462891 17.9813690185547 7.78529357910156 0.1077880859375 0.1077880859375 0 0 0.6978 0.6979 1.0000 <error: 0.107818603515625 0.1077880859375 0.1077880859375 0.1077880859375 1.0000 
131072 159.424621582031 40.3572616577148 2.288818359375e-05 6965368.0000 26.8034210205078 5.9479 26.8034210205078 26.8034210205078 18.4393005371094 18.4402160644531 8.36320495605469 0.107414245605469 0.107414245605469 0 0 0.6879 0.6880 1.0000 <error: 0.107429504394531 0.107414245605469 0.107414245605469 0.107414245605469 1.0000 
262144 172.781478881836 43.0583076477051 2.288818359375e-05 7548938.0000 29.1449165344238 5.9284 29.1449165344238 29.1449165344238 20.5608520507812 20.5613250732422 8.58359146118164 0.107521057128906 0.107521057128906 0 0 0.7055 0.7055 1.0000 <error: 0.107528686523438 0.107521057128906 0.107521057128906 0.107521057128906 1.0000 
524288 180.516159057617 45.0041370391846 2.6702880859375e-05 6760175.4286 30.5805320739746 5.9030 30.5805320739746 30.5805320739746 21.3972110748291 21.3974590301514 9.18307304382324 0.107288360595703 0.107288360595703 0 0 0.6997 0.6997 1.0000 <error: 0.107292175292969 0.107288360595703 0.107288360595703 0.107288360595703 1.0000 
1048576 192.078075408936 47.4461355209351 2.47955322265625e-05 7746479.2308 32.597996711731 5.8923 32.597996711731 32.597996711731 23.092755317688 23.0928678512573 9.50512886047363 0.107253074645996 0.107253074645996 0 0 0.7084 0.7084 1.0000 <error: 0.107254981994629 0.107253074645996 0.107253074645996 0.107253074645996 1.0000 
2097152 198.833754062653 49.2029871940613 2.52723693847656e-05 7867634.0566 33.846700668335 5.8745 33.846700668335 33.846700668335 23.8177437782288 23.8178029060364 10.0288977622986 0.107028484344482 0.107028484344482 0 0 0.7037 0.7037 1.0000 <error: 0.107029438018799 0.107028484344482 0.107028484344482 0.107028484344482 1.0000 
4194304 206.432480812073 51.1220631599426 2.64644622802734e-05 7800365.5856 35.2453780174255 5.8570 35.2453780174255 35.2453780174255 24.6178345680237 24.6178634166718 10.6275146007538 0.107143878936768 0.107143878936768 0 0 0.6985 0.6985 1.0000 <error: 0.107144355773926 0.107143878936768 0.107143878936768 0.107143878936768 1.0000 
