#set_size_in_keys sim_num_insn sim_num_refs sim_elapsed_time sim_inst_rate sim_num_branches sim_IPB bpred_2lev.lookups bpred_2lev.updates bpred_2lev.addr_hits bpred_2lev.dir_hits bpred_2lev.misses bpred_2lev.jr_hits bpred_2lev.jr_seen bpred_2lev.jr_non_ras_hits.PP bpred_2lev.jr_non_ras_seen.PP bpred_2lev.bpred_addr_rate bpred_2lev.bpred_dir_rate bpred_2lev.bpred_jr_rate bpred_2lev.bpred_jr_non_ras_rate.PP bpred_2lev.retstack_pushes bpred_2lev.retstack_pops bpred_2lev.used_ras.PP bpred_2lev.ras_hits.PP bpred_2lev.ras_rate.PP
4096 15934.833984375 4116.02783203125 0.00390625 4079317.5000 2571.76245117188 6.1961 2571.76245117188 2571.76245117188 2562.41821289062 2562.44970703125 9.312744140625 2.088134765625 2.08837890625 0 0 0.9964 0.9964 0.9999 <error: 2.0888671875 2.08837890625 2.08837890625 2.088134765625 0.9999 
8192 31805.7783203125 8211.07836914062 0.0074462890625 4271359.6066 5131.44372558594 6.1982 5131.44372558594 5131.44372558594 5121.28479003906 5121.30102539062 10.1427001953125 2.0440673828125 2.044189453125 0 0 0.9980 0.9980 0.9999 <error: 2.04443359375 2.044189453125 2.044189453125 2.0440673828125 0.9999 
16384 63549.2978515625 16402.6036376953 0.01513671875 4198353.6129 10251.284362793 6.1992 10251.284362793 10251.284362793 10240.6141357422 10240.6221923828 10.6621704101562 2.02203369140625 2.0220947265625 0 0 0.9990 0.9990 1.0000 <error: 2.022216796875 2.0220947265625 2.0220947265625 2.02203369140625 1.0000 
32768 127037.534729004 32786.3664550781 0.030029296875 4230453.1890 20491.2046813965 6.1996 20491.2046813965 20491.2046813965 20479.8239440918 20479.8279418945 11.3767395019531 2.01101684570312 2.01104736328125 0 0 0.9994 0.9994 1.0000 <error: 2.0111083984375 2.01104736328125 2.01104736328125 2.01101684570312 1.0000 
65536 254014.07484436 65554.2477416992 0.0614471435546875 4133863.0268 40971.1648406982 6.1998 40971.1648406982 40971.1648406982 40959.0140991211 40959.0161743164 12.1486663818359 2.00550842285156 2.00552368164062 0 0 0.9997 0.9997 1.0000 <error: 2.00555419921875 2.00552368164062 2.00552368164062 2.00550842285156 1.0000 
