#set_size_in_keys sim_num_insn sim_num_refs sim_elapsed_time sim_inst_rate sim_num_branches sim_IPB bpred_2lev.lookups bpred_2lev.updates bpred_2lev.addr_hits bpred_2lev.dir_hits bpred_2lev.misses bpred_2lev.jr_hits bpred_2lev.jr_seen bpred_2lev.jr_non_ras_hits.PP bpred_2lev.jr_non_ras_seen.PP bpred_2lev.bpred_addr_rate bpred_2lev.bpred_dir_rate bpred_2lev.bpred_jr_rate bpred_2lev.bpred_jr_non_ras_rate.PP bpred_2lev.retstack_pushes bpred_2lev.retstack_pops bpred_2lev.used_ras.PP bpred_2lev.ras_hits.PP bpred_2lev.ras_rate.PP
4096 15934.833984375 4116.02783203125 0.00390625 4079317.5000 2571.76245117188 6.1961 2571.76245117188 2571.76245117188 2562.55639648438 2562.58544921875 9.177001953125 2.088134765625 2.08837890625 0 0 0.9964 0.9964 0.9999 <error: 2.0888671875 2.08837890625 2.08837890625 2.088134765625 0.9999 
8192 31805.7783203125 8211.07836914062 0.0074462890625 4271359.6066 5131.44372558594 6.1982 5131.44372558594 5131.44372558594 5121.47351074219 5121.48815917969 9.95556640625 2.0440673828125 2.044189453125 0 0 0.9981 0.9981 0.9999 <error: 2.04443359375 2.044189453125 2.044189453125 2.0440673828125 0.9999 
16384 63549.2978515625 16402.6036376953 0.01483154296875 4284739.4897 10251.284362793 6.1992 10251.284362793 10251.284362793 10240.8002929688 10240.8070678711 10.477294921875 2.02203369140625 2.0220947265625 0 0 0.9990 0.9990 1.0000 <error: 2.022216796875 2.0220947265625 2.0220947265625 2.02203369140625 1.0000 
32768 127037.534729004 32786.3664550781 0.02972412109375 4273887.0000 20491.2046813965 6.1996 20491.2046813965 20491.2046813965 20480.0848388672 20480.0883178711 11.1163635253906 2.01101684570312 2.01104736328125 0 0 0.9995 0.9995 1.0000 <error: 2.0111083984375 2.01104736328125 2.01104736328125 2.01101684570312 1.0000 
65536 254014.07484436 65554.2477416992 0.06219482421875 4084167.4212 40971.1648406982 6.1998 40971.1648406982 40971.1648406982 40959.2754974365 40959.2772521973 11.8875885009766 2.00550842285156 2.00552368164062 0 0 0.9997 0.9997 1.0000 <error: 2.00555419921875 2.00552368164062 2.00552368164062 2.00550842285156 1.0000 
