#set_size_in_keys sim_num_insn sim_num_refs sim_elapsed_time sim_inst_rate sim_num_branches sim_IPB bpred_bimod.lookups bpred_bimod.updates bpred_bimod.addr_hits bpred_bimod.dir_hits bpred_bimod.misses bpred_bimod.jr_hits bpred_bimod.jr_seen bpred_bimod.jr_non_ras_hits.PP bpred_bimod.jr_non_ras_seen.PP bpred_bimod.bpred_addr_rate bpred_bimod.bpred_dir_rate bpred_bimod.bpred_jr_rate bpred_bimod.bpred_jr_non_ras_rate.PP bpred_bimod.retstack_pushes bpred_bimod.retstack_pops bpred_bimod.used_ras.PP bpred_bimod.ras_hits.PP bpred_bimod.ras_rate.PP
4096 15934.833984375 4116.02783203125 0.003662109375 4351272.0000 2571.76245117188 6.1961 2571.76245117188 2571.76245117188 2562.609375 2562.63452148438 9.1279296875 2.088134765625 2.08837890625 0 0 0.9964 0.9965 0.9999 <error: 2.0888671875 2.08837890625 2.08837890625 2.088134765625 0.9999 
8192 31805.7783203125 8211.07836914062 0.0072021484375 4416151.4576 5131.44372558594 6.1982 5131.44372558594 5131.44372558594 5121.41235351562 5121.42492675781 10.018798828125 2.0440673828125 2.044189453125 0 0 0.9980 0.9980 0.9999 <error: 2.04443359375 2.044189453125 2.044189453125 2.0440673828125 0.9999 
16384 63549.2978515625 16402.6036376953 0.014404296875 4411829.2203 10251.284362793 6.1992 10251.284362793 10251.284362793 10240.7882080078 10240.7945556641 10.4898071289062 2.02203369140625 2.0220947265625 0 0 0.9990 0.9990 1.0000 <error: 2.022216796875 2.0220947265625 2.0220947265625 2.02203369140625 1.0000 
32768 127037.534729004 32786.3664550781 0.028656005859375 4433190.5623 20491.2046813965 6.1996 20491.2046813965 20491.2046813965 20479.979888916 20479.9830627441 11.2216186523438 2.01101684570312 2.01104736328125 0 0 0.9995 0.9995 1.0000 <error: 2.0111083984375 2.01104736328125 2.01104736328125 2.01101684570312 1.0000 
65536 254014.07484436 65554.2477416992 0.0651092529296875 3901351.3965 40971.1648406982 6.1998 40971.1648406982 40971.1648406982 40959.1419219971 40959.1435241699 12.0213165283203 2.00550842285156 2.00552368164062 0 0 0.9997 0.9997 1.0000 <error: 2.00555419921875 2.00552368164062 2.00552368164062 2.00550842285156 1.0000 
