#set_size_in_keys sim_num_insn sim_num_refs sim_elapsed_time sim_inst_rate sim_num_branches sim_IPB bpred_bimod.lookups bpred_bimod.updates bpred_bimod.addr_hits bpred_bimod.dir_hits bpred_bimod.misses bpred_bimod.jr_hits bpred_bimod.jr_seen bpred_bimod.jr_non_ras_hits.PP bpred_bimod.jr_non_ras_seen.PP bpred_bimod.bpred_addr_rate bpred_bimod.bpred_dir_rate bpred_bimod.bpred_jr_rate bpred_bimod.bpred_jr_non_ras_rate.PP bpred_bimod.retstack_pushes bpred_bimod.retstack_pops bpred_bimod.used_ras.PP bpred_bimod.ras_hits.PP bpred_bimod.ras_rate.PP
4096 7205.45092773438 3084.6142578125 0.001953125 3689190.8750 1029.17211914062 7.0012 1029.17211914062 1029.17211914062 1028.12573242188 1028.14965820312 1.0224609375 0.013427734375 0.013671875 0 0 0.9990 0.9990 0.9821 <error: 0.01416015625 0.013671875 0.013671875 0.013427734375 0.9821 
8192 14338.3250732422 6141.43884277344 0.003662109375 3915318.6333 2048.17163085938 7.0005 2048.17163085938 2048.17163085938 2047.14819335938 2047.16003417969 1.0115966796875 0.0067138671875 0.0068359375 0 0 0.9995 0.9995 0.9821 <error: 0.007080078125 0.0068359375 0.0068359375 0.0067138671875 0.9821 
16384 28976.9945678711 12415.0938110352 0.0074462890625 3891467.8607 4139.4189453125 7.0003 4139.4189453125 4139.4189453125 4138.4072265625 4138.41320800781 1.0057373046875 0.00335693359375 0.00341796875 0 0 0.9998 0.9998 0.9821 <error: 0.0035400390625 0.00341796875 0.00341796875 0.00335693359375 0.9821 
32768 57229.884979248 24523.4451904297 0.014556884765625 3931465.1384 8175.55056762695 7.0001 8175.55056762695 8175.55056762695 8174.54461669922 8174.54760742188 1.00296020507812 0.001678466796875 0.001708984375 0 0 0.9999 0.9999 0.9821 <error: 0.00177001953125 0.001708984375 0.001708984375 0.001678466796875 0.9821 
65536 114497.650466919 49066.758102417 0.0125732421875 9106453.9090 16356.6620941162 7.0001 16356.6620941162 16356.6620941162 16355.6591033936 16355.6605987549 1.00149536132812 0.0008392333984375 0.0008544921875 0 0 0.9999 0.9999 0.9821 <error: 0.000885009765625 0.0008544921875 0.0008544921875 0.0008392333984375 0.9821 
