#set_size_in_keys sim_num_insn sim_num_refs sim_elapsed_time sim_inst_rate il1.accesses il1.hits il1.misses il1.replacements il1.writebacks il1.invalidations il1.miss_rate il1.repl_rate il1.wb_rate il1.inv_rate dl1.accesses dl1.hits dl1.misses dl1.replacements dl1.writebacks dl1.invalidations dl1.miss_rate dl1.repl_rate dl1.wb_rate dl1.inv_rate dl2.accesses dl2.hits dl2.misses dl2.replacements dl2.writebacks dl2.invalidations dl2.miss_rate dl2.repl_rate dl2.wb_rate dl2.inv_rate itlb.accesses itlb.hits itlb.misses itlb.replacements itlb.writebacks itlb.invalidations itlb.miss_rate itlb.repl_rate itlb.wb_rate itlb.inv_rate dtlb.accesses dtlb.hits dtlb.misses dtlb.replacements dtlb.writebacks dtlb.invalidations dtlb.miss_rate dtlb.repl_rate dtlb.wb_rate dtlb.inv_rate ld_text_base ld_text_size ld_data_base ld_data_size ld_stack_base ld_stack_size ld_prog_entry ld_environ_base ld_target_big_endian mem.page_count mem.page_mem mem.ptab_misses mem.ptab_accesses mem.ptab_miss_rate
4096 283.13037109375 84.427978515625 0.0048828125 57985.1000 283.13037109375 283.02294921875 0.107421875 0.044921875 0 0 0.0004 0.0002 0.0000 0.0000 84.445068359375 83.478759765625 0.96630859375 0.90380859375 0.76416015625 0 0.0114 0.0107 0.0090 0.0000 1.837890625 1.380615234375 0.457275390625 0 0 0 0.2488 0.0000 0.0000 0.0000 283.13037109375 283.12841796875 0.001953125 0 0 0 0.0000 0.0000 0.0000 0.0000 84.445068359375 84.44140625 0.003662109375 0 0 0 0.0000 0.0000 0.0000 0.0000 0x00400000 7.16796875 0x10000000 1 0x7fffc000 4 0x00400140 0x7fff8000 0 0.005615234375 92k 0.005615234375 1345.69091796875 0.0000 
8192 301.518432617188 89.0567626953125 0.00390625 77188.7188 301.518432617188 301.462646484375 0.0557861328125 0.0245361328125 0 0 0.0002 0.0001 0.0000 0.0000 89.0653076171875 87.817626953125 1.2476806640625 1.2164306640625 1.065673828125 0 0.0140 0.0137 0.0120 0.0000 2.369140625 2.0166015625 0.3525390625 0 0 0 0.1488 0.0000 0.0000 0.0000 301.518432617188 301.517456054688 0.0009765625 0 0 0 0.0000 0.0000 0.0000 0.0000 89.0653076171875 89.0625 0.0028076171875 0 0 0 0.0000 0.0000 0.0000 0.0000 0x00400000 3.587890625 0x10000000 0.5 0x7fffc000 2 0x00400140 0x7fff8000 0 0.0037841796875 124k 0.0037841796875 1406.36743164062 0.0000 
16384 322.001342773438 94.4420776367188 0.0032958984375 97697.5926 322.001342773438 321.972839355469 0.02850341796875 0.01287841796875 0 0 0.0001 0.0000 0.0000 0.0000 94.4463500976562 92.82421875 1.62213134765625 1.60650634765625 1.4461669921875 0 0.0172 0.0170 0.0153 0.0000 3.0968017578125 2.795166015625 0.3016357421875 0 0 0 0.0974 0.0000 0.0000 0.0000 322.001342773438 322.000854492188 0.00048828125 0 0 0 0.0000 0.0000 0.0000 0.0000 94.4463500976562 94.4439697265625 0.00238037109375 0 0 0 0.0000 0.0000 0.0000 0.0000 0x00400000 1.794921875 0x10000000 0.25 0x7fffc000 1 0x00400140 0x7fff8000 0 0.00286865234375 188k 0.00286865234375 1487.98547363281 0.0000 
32768 338.426422119141 98.7523803710938 0.003021240234375 112015.7273 338.426422119141 338.412139892578 0.0142822265625 0.0064697265625 0 0 0.0000 0.0000 0.0000 0.0000 98.7545166015625 96.7496948242188 2.00482177734375 1.99700927734375 1.82659912109375 0 0.0203 0.0202 0.0185 0.0000 3.845703125 3.56985473632812 0.275848388671875 0 0 0 0.0717 0.0000 0.0000 0.0000 338.426422119141 338.426177978516 0.000244140625 0 0 0 0.0000 0.0000 0.0000 0.0000 98.7545166015625 98.7523498535156 0.002166748046875 0 0 0 0.0000 0.0000 0.0000 0.0000 0x00400000 0.8984375 0x10000000 0.125 0x7fffc000 0.5 0x00400140 0x7fff8000 0 0.002410888671875 316k 0.002410888671875 1556.76428222656 0.0000 
65536 357.905731201172 104.05403137207 0.0028076171875 127476.6848 357.905731201172 357.898590087891 0.00714111328125 0.00323486328125 0 0 0.0000 0.0000 0.0000 0.0000 104.055099487305 101.658218383789 2.39688110351562 2.39297485351562 2.22161865234375 0 0.0230 0.0230 0.0214 0.0000 4.62564086914062 4.36271667480469 0.262924194335938 0 0 0 0.0568 0.0000 0.0000 0.0000 357.905731201172 357.905609130859 0.0001220703125 0 0 0 0.0000 0.0000 0.0000 0.0000 104.055099487305 104.052886962891 0.0022125244140625 0.0002593994140625 0.0002288818359375 0 0.0000 0.0000 0.0000 0.0000 0x00400000 0.44921875 0x10000000 0.0625 0x7fffc000 0.25 0x00400140 0x7fff8000 0 0.0021820068359375 572k 0.0021820068359375 1642.50790405273 0.0000 
131072 379.549461364746 109.943092346191 0.0025787353515625 147184.3402 379.549461364746 379.545890808105 0.003570556640625 0.001617431640625 0 0 0.0000 0.0000 0.0000 0.0000 109.943626403809 107.156463623047 2.78716278076172 2.78520965576172 2.61000061035156 0 0.0254 0.0253 0.0237 0.0000 5.40073394775391 5.14427185058594 0.256462097167969 0 0 0 0.0475 0.0000 0.0000 0.0000 379.549461364746 379.54940032959 6.103515625e-05 0 0 0 0.0000 0.0000 0.0000 0.0000 109.943626403809 109.937660217285 0.0059661865234375 0.0049896240234375 0.00403594970703125 0 0.0001 0.0000 0.0000 0.0000 0x00400000 0.224609375 0x10000000 0.03125 0x7fffc000 0.125 0x00400140 0x7fff8000 0 0.00206756591796875 1084k 0.00206756591796875 1739.47248840332 0.0000 
262144 396.551029205322 114.488010406494 0.00223541259765625 177395.0051 396.551029205322 396.549243927002 0.0017852783203125 0.0008087158203125 0 0 0.0000 0.0000 0.0000 0.0000 114.488277435303 111.312160491943 3.17611694335938 3.17514038085938 2.99876403808594 0 0.0277 0.0277 0.0262 0.0000 6.17666625976562 5.92343521118164 0.253231048583984 0 0 0 0.0410 0.0000 0.0000 0.0000 396.551029205322 396.550998687744 3.0517578125e-05 0 0 0 0.0000 0.0000 0.0000 0.0000 114.488277435303 114.312320709229 0.175956726074219 0.175468444824219 0.169841766357422 0 0.0015 0.0015 0.0015 0.0000 0x00400000 0.1123046875 0x10000000 0.015625 0x7fffc000 0.0625 0x00400140 0x7fff8000 0 0.00201034545898438 2108k 0.00201034545898438 1815.87436676025 0.0000 
524288 416.284934997559 119.909490585327 0.0015716552734375 264870.3835 416.284934997559 416.284042358398 0.00089263916015625 0.00040435791015625 0 0 0.0000 0.0000 0.0000 0.0000 119.909624099731 116.342746734619 3.5668773651123 3.5663890838623 3.38964080810547 0 0.0297 0.0297 0.0283 0.0000 6.95741081237793 6.62568473815918 0.33172607421875 0.08172607421875 0.0803031921386719 0 0.0477 0.0117 0.0115 0.0000 416.284934997559 416.28491973877 1.52587890625e-05 0 0 0 0.0000 0.0000 0.0000 0.0000 119.909624099731 119.418180465698 0.491443634033203 0.491199493408203 0.473005294799805 0 0.0041 0.0041 0.0039 0.0000 0x00400000 0.05615234375 0x10000000 0.0078125 0x7fffc000 0.03125 0x00400140 0x7fff8000 0 0.00198173522949219 4156k 0.00198173522949219 1905.30583572388 0.0000 
1048576 438.174723625183 125.895392417908 0.000932693481445312 469794.9888 438.174723625183 438.174242019653 0.000481605529785156 0.000237464904785156 0 0 0.0000 0.0000 0.0000 0.0000 125.89545917511 121.9541015625 3.94135761260986 3.94111347198486 3.76331329345703 0 0.0313 0.0313 0.0299 0.0000 7.70515251159668 7.0854959487915 0.619656562805176 0.494656562805176 0.368304252624512 0 0.0804 0.0642 0.0478 0.0000 438.174723625183 438.174715995789 7.62939453125e-06 0 0 0 0.0000 0.0000 0.0000 0.0000 125.89545917511 125.015286445618 0.880172729492188 0.880050659179688 0.848947525024414 0 0.0070 0.0070 0.0067 0.0000 0x00400000 0.028076171875 0x10000000 0.00390625 0x7fffc000 0.015625 0x00400140 0x7fff8000 0 0.00197315216064453 8276k 0.0105047225952148 2004.66323661804 0.0000 
2097152 455.210411071777 130.463164329529 0.000616073608398438 738889.6471 455.210411071777 455.210170269012 0.000240802764892578 0.000118732452392578 0 0 0.0000 0.0000 0.0000 0.0000 130.46319770813 126.140603542328 4.322594165802 4.3224720954895 4.14478158950806 0 0.0331 0.0331 0.0318 0.0000 8.46761655807495 7.60768842697144 0.859928131103516 0.797428131103516 0.661889553070068 0 0.1016 0.0942 0.0782 0.0000 455.210411071777 455.21040725708 3.814697265625e-06 0 0 0 0.0000 0.0000 0.0000 0.0000 130.46319770813 129.1811876297 1.28201007843018 1.28194904327393 1.2420449256897 0 0.0098 0.0098 0.0095 0.0000 0x00400000 0.0140380859375 0x10000000 0.001953125 0x7fffc000 0.0078125 0x00400140 0x7fff8000 0 0.00196599960327148 16492k 0.0166306495666504 2081.85475158691 0.0000 
4194304 475.000361442566 135.904629707336 0.000468254089355469 1014407.2892 475.000361442566 475.000241041183 0.000120401382446289 5.93662261962891e-05 0 0 0.0000 0.0000 0.0000 0.0000 135.904646396637 131.209574222565 4.69507217407227 4.69501113891602 4.51733636856079 0 0.0345 0.0345 0.0332 0.0000 9.2125289440155 8.01331663131714 1.19921231269836 1.16796231269836 1.01862621307373 0 0.1302 0.1268 0.1106 0.0000 475.000361442566 475.000359535217 1.9073486328125e-06 0 0 0 0.0000 0.0000 0.0000 0.0000 135.904646396637 134.210946798325 1.69369959831238 1.69366908073425 1.64792680740356 0 0.0125 0.0125 0.0121 0.0000 0x00400000 0.00701904296875 0x10000000 0.0009765625 0x7fffc000 0.00390625 0x00400140 0x7fff8000 0 0.00196242332458496 32924k 0.0149471759796143 2171.85409450531 0.0000 
