#set_size_in_keys sim_num_insn sim_num_refs sim_elapsed_time sim_inst_rate sim_num_branches sim_IPB bpred_2lev.lookups bpred_2lev.updates bpred_2lev.addr_hits bpred_2lev.dir_hits bpred_2lev.misses bpred_2lev.jr_hits bpred_2lev.jr_seen bpred_2lev.jr_non_ras_hits.PP bpred_2lev.jr_non_ras_seen.PP bpred_2lev.bpred_addr_rate bpred_2lev.bpred_dir_rate bpred_2lev.bpred_jr_rate bpred_2lev.bpred_jr_non_ras_rate.PP bpred_2lev.retstack_pushes bpred_2lev.retstack_pops bpred_2lev.used_ras.PP bpred_2lev.ras_hits.PP bpred_2lev.ras_rate.PP
4096 283.13037109375 84.427978515625 0.000244140625 1159702.0000 47.025390625 6.0208 47.025390625 47.025390625 38.32177734375 38.36083984375 8.66455078125 3.089111328125 3.089111328125 0 0 0.8149 0.8157 1.0000 <error: 3.089599609375 3.089111328125 3.089111328125 3.089111328125 1.0000 
8192 301.518432617188 89.0567626953125 0.0001220703125 2470039.0000 49.8665771484375 6.0465 49.8665771484375 49.8665771484375 40.742919921875 40.76220703125 9.1043701171875 3.0455322265625 3.045654296875 0 0 0.8170 0.8174 1.0000 <error: 3.0458984375 3.045654296875 3.045654296875 3.0455322265625 1.0000 
16384 322.001342773438 94.4420776367188 6.103515625e-05 5275670.0000 52.9999389648438 6.0755 52.9999389648438 52.9999389648438 43.209716796875 43.2191162109375 9.78082275390625 3.02276611328125 3.0228271484375 0 0 0.8153 0.8155 1.0000 <error: 3.02294921875 3.0228271484375 3.0228271484375 3.02276611328125 1.0000 
32768 338.426422119141 98.7523803710938 9.1552734375e-05 3696519.0000 55.4727172851562 6.1008 55.4727172851562 55.4727172851562 44.7351379394531 44.7401123046875 10.7326049804688 3.01138305664062 3.01141357421875 0 0 0.8064 0.8065 1.0000 <error: 3.011474609375 3.01141357421875 3.01141357421875 3.01138305664062 1.0000 
65536 357.905731201172 104.05403137207 9.1552734375e-05 3909285.0000 58.4789276123047 6.1203 58.4789276123047 58.4789276123047 47.2080078125 47.2103729248047 11.2685546875 3.00569152832031 3.00570678710938 0 0 0.8073 0.8073 1.0000 <error: 3.0057373046875 3.00570678710938 3.00570678710938 3.00569152832031 1.0000 
131072 379.549461364746 109.943092346191 9.918212890625e-05 3826792.8462 61.8078460693359 6.1408 61.8078460693359 61.8078460693359 49.8578033447266 49.8590698242188 11.9487762451172 3.00284576416016 3.00285339355469 0 0 0.8067 0.8067 1.0000 <error: 3.00286865234375 3.00285339355469 3.00285339355469 3.00284576416016 1.0000 
262144 396.551029205322 114.488010406494 0.000102996826171875 3850128.6296 64.3716354370117 6.1603 64.3716354370117 64.3716354370117 51.4145202636719 51.4151458740234 12.9564895629883 3.00142288208008 3.00142669677734 0 0 0.7987 0.7987 1.0000 <error: 3.00143432617188 3.00142669677734 3.00142669677734 3.00142288208008 1.0000 
524288 416.284934997559 119.909490585327 0.000108718872070312 3829003.4386 67.4256439208984 6.1740 67.4256439208984 67.4256439208984 53.9632701873779 53.9635791778564 13.462064743042 3.00071144104004 3.00071334838867 0 0 0.8003 0.8003 1.0000 <error: 3.00071716308594 3.00071334838867 3.00071334838867 3.00071144104004 1.0000 
1048576 438.174723625183 125.895392417908 0.00011444091796875 3828829.1583 70.791672706604 6.1896 70.791672706604 70.791672706604 56.6487827301025 56.6489496231079 14.1427230834961 3.00035858154297 3.00035953521729 0 9.5367431640625e-07 0.8002 0.8002 1.0000 0.0000 3.0003604888916 3.00035858154297 3.00035858154297 3.00035858154297 1.0000 
2097152 455.210411071777 130.463164329529 0.000118732452392578 3833917.3655 73.363139629364 6.2049 73.363139629364 73.363139629364 58.2213687896729 58.221453666687 15.141685962677 3.00017929077148 3.00017976760864 0 4.76837158203125e-07 0.7936 0.7936 1.0000 0.0000 3.0001802444458 3.00017929077148 3.00017929077148 3.00017929077148 1.0000 
4194304 475.000361442566 135.904629707336 0.000126123428344727 3766154.8507 76.424961566925 6.2153 76.424961566925 76.424961566925 60.7686257362366 60.7686674594879 15.6562941074371 3.00008964538574 3.00008988380432 0 2.38418579101562e-07 0.7951 0.7951 1.0000 0.0000 3.0000901222229 3.00008964538574 3.00008964538574 3.00008964538574 1.0000 
