#set_size_in_keys sim_num_insn sim_num_refs sim_elapsed_time sim_inst_rate sim_num_branches sim_IPB bpred_bimod.lookups bpred_bimod.updates bpred_bimod.addr_hits bpred_bimod.dir_hits bpred_bimod.misses bpred_bimod.jr_hits bpred_bimod.jr_seen bpred_bimod.jr_non_ras_hits.PP bpred_bimod.jr_non_ras_seen.PP bpred_bimod.bpred_addr_rate bpred_bimod.bpred_dir_rate bpred_bimod.bpred_jr_rate bpred_bimod.bpred_jr_non_ras_rate.PP bpred_bimod.retstack_pushes bpred_bimod.retstack_pops bpred_bimod.used_ras.PP bpred_bimod.ras_hits.PP bpred_bimod.ras_rate.PP
4096 283.13037109375 84.427978515625 0.000244140625 1159702.0000 47.025390625 6.0208 47.025390625 47.025390625 39.394287109375 39.4267578125 7.5986328125 3.089111328125 3.089111328125 0 0 0.8377 0.8384 1.0000 <error: 3.089599609375 3.089111328125 3.089111328125 3.089111328125 1.0000 
8192 301.518432617188 89.0567626953125 0.0001220703125 2470039.0000 49.8665771484375 6.0465 49.8665771484375 49.8665771484375 41.6214599609375 41.6385498046875 8.22802734375 3.0455322265625 3.045654296875 0 0 0.8347 0.8350 1.0000 <error: 3.0458984375 3.045654296875 3.045654296875 3.0455322265625 1.0000 
16384 322.001342773438 94.4420776367188 6.103515625e-05 5275670.0000 52.9999389648438 6.0755 52.9999389648438 52.9999389648438 44.2052001953125 44.2136840820312 8.7862548828125 3.02276611328125 3.0228271484375 0 0 0.8341 0.8342 1.0000 <error: 3.02294921875 3.0228271484375 3.0228271484375 3.02276611328125 1.0000 
32768 338.426422119141 98.7523803710938 6.103515625e-05 5544778.5000 55.4727172851562 6.1008 55.4727172851562 55.4727172851562 45.9008178710938 45.9050598144531 9.56765747070312 3.01138305664062 3.01141357421875 0 0 0.8274 0.8275 1.0000 <error: 3.011474609375 3.01141357421875 3.01141357421875 3.01138305664062 1.0000 
65536 357.905731201172 104.05403137207 9.1552734375e-05 3909285.0000 58.4789276123047 6.1203 58.4789276123047 58.4789276123047 48.2648620605469 48.2669982910156 10.2119293212891 3.00569152832031 3.00570678710938 0 0 0.8253 0.8254 1.0000 <error: 3.0057373046875 3.00570678710938 3.00570678710938 3.00569152832031 1.0000 
131072 379.549461364746 109.943092346191 9.918212890625e-05 3826792.8462 61.8078460693359 6.1408 61.8078460693359 61.8078460693359 51.0551910400391 51.0562515258789 10.751594543457 3.00284576416016 3.00285339355469 0 0 0.8260 0.8260 1.0000 <error: 3.00286865234375 3.00285339355469 3.00285339355469 3.00284576416016 1.0000 
262144 396.551029205322 114.488010406494 0.000102996826171875 3850128.6296 64.3716354370117 6.1603 64.3716354370117 64.3716354370117 52.8190040588379 52.8195304870605 11.5521049499512 3.00142288208008 3.00142669677734 0 0 0.8205 0.8205 1.0000 <error: 3.00143432617188 3.00142669677734 3.00142669677734 3.00142288208008 1.0000 
524288 416.284934997559 119.909490585327 0.0001068115234375 3897378.5000 67.4256439208984 6.1740 67.4256439208984 67.4256439208984 55.255090713501 55.2553558349609 12.1702880859375 3.00071144104004 3.00071334838867 0 0 0.8195 0.8195 1.0000 <error: 3.00071716308594 3.00071334838867 3.00071334838867 3.00071144104004 1.0000 
1048576 438.174723625183 125.895392417908 0.000112533569335938 3893724.5678 70.791672706604 6.1896 70.791672706604 70.791672706604 58.0811319351196 58.0812740325928 12.7103986740112 3.00035858154297 3.00035953521729 0 9.5367431640625e-07 0.8205 0.8205 1.0000 0.0000 3.0003604888916 3.00035858154297 3.00035858154297 3.00035858154297 1.0000 
2097152 455.210411071777 130.463164329529 0.000116348266601562 3912481.2459 73.363139629364 6.2049 73.363139629364 73.363139629364 59.8514752388 59.8515462875366 13.5115933418274 3.00017929077148 3.00017976760864 0 4.76837158203125e-07 0.8158 0.8158 1.0000 0.0000 3.0001802444458 3.00017929077148 3.00017929077148 3.00017929077148 1.0000 
4194304 475.000361442566 135.904629707336 0.000124216079711914 3823984.4837 76.424961566925 6.2153 76.424961566925 76.424961566925 62.2862205505371 62.286256313324 14.1387052536011 3.00008964538574 3.00008988380432 0 2.38418579101562e-07 0.8150 0.8150 1.0000 0.0000 3.0000901222229 3.00008964538574 3.00008964538574 3.00008964538574 1.0000 
