#set_size_in_keys sim_num_insn sim_num_refs sim_elapsed_time sim_inst_rate sim_num_branches sim_IPB bpred_2lev.lookups bpred_2lev.updates bpred_2lev.addr_hits bpred_2lev.dir_hits bpred_2lev.misses bpred_2lev.jr_hits bpred_2lev.jr_seen bpred_2lev.jr_non_ras_hits.PP bpred_2lev.jr_non_ras_seen.PP bpred_2lev.bpred_addr_rate bpred_2lev.bpred_dir_rate bpred_2lev.bpred_jr_rate bpred_2lev.bpred_jr_non_ras_rate.PP bpred_2lev.retstack_pushes bpred_2lev.retstack_pops bpred_2lev.used_ras.PP bpred_2lev.ras_hits.PP bpred_2lev.ras_rate.PP
4096 283.13037109375 84.427978515625 0.000244140625 1159702.0000 47.025390625 6.0208 47.025390625 47.025390625 38.3349609375 38.37255859375 8.65283203125 3.089111328125 3.089111328125 0 0 0.8152 0.8160 1.0000 <error: 3.089599609375 3.089111328125 3.089111328125 3.089111328125 1.0000 
8192 301.518432617188 89.0567626953125 0.0001220703125 2470039.0000 49.8665771484375 6.0465 49.8665771484375 49.8665771484375 40.7816162109375 40.801025390625 9.0655517578125 3.0455322265625 3.045654296875 0 0 0.8178 0.8182 1.0000 <error: 3.0458984375 3.045654296875 3.045654296875 3.0455322265625 1.0000 
16384 322.001342773438 94.4420776367188 6.103515625e-05 5275670.0000 52.9999389648438 6.0755 52.9999389648438 52.9999389648438 43.3046264648438 43.3139038085938 9.68603515625 3.02276611328125 3.0228271484375 0 0 0.8171 0.8172 1.0000 <error: 3.02294921875 3.0228271484375 3.0228271484375 3.02276611328125 1.0000 
32768 338.426422119141 98.7523803710938 9.1552734375e-05 3696519.0000 55.4727172851562 6.1008 55.4727172851562 55.4727172851562 44.8250122070312 44.8298034667969 10.6429138183594 3.01138305664062 3.01141357421875 0 0 0.8081 0.8081 1.0000 <error: 3.011474609375 3.01141357421875 3.01141357421875 3.01138305664062 1.0000 
65536 357.905731201172 104.05403137207 9.1552734375e-05 3909285.0000 58.4789276123047 6.1203 58.4789276123047 58.4789276123047 47.2975158691406 47.2999267578125 11.1790008544922 3.00569152832031 3.00570678710938 0 0 0.8088 0.8088 1.0000 <error: 3.0057373046875 3.00570678710938 3.00570678710938 3.00569152832031 1.0000 
131072 379.549461364746 109.943092346191 9.918212890625e-05 3826792.8462 61.8078460693359 6.1408 61.8078460693359 61.8078460693359 49.9706726074219 49.9719161987305 11.8359298706055 3.00284576416016 3.00285339355469 0 0 0.8085 0.8085 1.0000 <error: 3.00286865234375 3.00285339355469 3.00285339355469 3.00284576416016 1.0000 
262144 396.551029205322 114.488010406494 0.000102996826171875 3850128.6296 64.3716354370117 6.1603 64.3716354370117 64.3716354370117 51.5233917236328 51.5240173339844 12.8476181030273 3.00142288208008 3.00142669677734 0 0 0.8004 0.8004 1.0000 <error: 3.00143432617188 3.00142669677734 3.00142669677734 3.00142288208008 1.0000 
524288 416.284934997559 119.909490585327 0.000108718872070312 3829003.4386 67.4256439208984 6.1740 67.4256439208984 67.4256439208984 54.0694370269775 54.0697479248047 13.3558959960938 3.00071144104004 3.00071334838867 0 0 0.8019 0.8019 1.0000 <error: 3.00071716308594 3.00071334838867 3.00071334838867 3.00071144104004 1.0000 
1048576 438.174723625183 125.895392417908 0.000116348266601562 3766061.4672 70.791672706604 6.1896 70.791672706604 70.791672706604 56.7817964553833 56.78196144104 14.009711265564 3.00035858154297 3.00035953521729 0 9.5367431640625e-07 0.8021 0.8021 1.0000 0.0000 3.0003604888916 3.00035858154297 3.00035858154297 3.00035858154297 1.0000 
2097152 455.210411071777 130.463164329529 0.000119209289550781 3818581.6960 73.363139629364 6.2049 73.363139629364 73.363139629364 58.3495678901672 58.3496499061584 15.0134897232056 3.00017929077148 3.00017976760864 0 4.76837158203125e-07 0.7954 0.7954 1.0000 0.0000 3.0001802444458 3.00017929077148 3.00017929077148 3.00017929077148 1.0000 
4194304 475.000361442566 135.904629707336 0.000126123428344727 3766154.8507 76.424961566925 6.2153 76.424961566925 76.424961566925 60.8888032436371 60.8888442516327 15.5361173152924 3.00008964538574 3.00008988380432 0 2.38418579101562e-07 0.7967 0.7967 1.0000 0.0000 3.0000901222229 3.00008964538574 3.00008964538574 3.00008964538574 1.0000 
