#set_size_in_keys sim_num_insn sim_num_refs sim_elapsed_time sim_inst_rate sim_num_branches sim_IPB bpred_bimod.lookups bpred_bimod.updates bpred_bimod.addr_hits bpred_bimod.dir_hits bpred_bimod.misses bpred_bimod.jr_hits bpred_bimod.jr_seen bpred_bimod.jr_non_ras_hits.PP bpred_bimod.jr_non_ras_seen.PP bpred_bimod.bpred_addr_rate bpred_bimod.bpred_dir_rate bpred_bimod.bpred_jr_rate bpred_bimod.bpred_jr_non_ras_rate.PP bpred_bimod.retstack_pushes bpred_bimod.retstack_pops bpred_bimod.used_ras.PP bpred_bimod.ras_hits.PP bpred_bimod.ras_rate.PP
4096 15900.9565429688 4099.88891601562 0.00390625 4070644.8750 2564.17895507812 6.2012 2564.17895507812 2564.17895507812 2554.98657226562 2555.01000976562 9.1689453125 0.013427734375 0.013671875 0 0 0.9964 0.9964 0.9821 <error: 0.01416015625 0.013671875 0.013671875 0.013427734375 0.9821 
8192 31773.0256347656 8195.44445800781 0.0079345703125 4004378.8615 5124.08947753906 6.2007 5124.08947753906 5124.08947753906 5114.06298828125 5114.07470703125 10.0147705078125 0.0067138671875 0.0068359375 0 0 0.9980 0.9980 0.9821 <error: 0.007080078125 0.0068359375 0.0068359375 0.0067138671875 0.9821 
16384 63517.239074707 16387.2222290039 0.0159912109375 3972009.3321 10244.0447387695 6.2004 10244.0447387695 10244.0447387695 10233.4745483398 10233.48046875 10.5642700195312 0.00335693359375 0.00341796875 0 0 0.9990 0.9990 0.9821 <error: 0.0035400390625 0.00341796875 0.00341796875 0.00335693359375 0.9821 
32768 127005.646850586 32771.111114502 0.03192138671875 3978700.7992 20484.0223693848 6.2002 20484.0223693848 20484.0223693848 20472.8613586426 20472.8643188477 11.1580505371094 0.001678466796875 0.001708984375 0 0 0.9995 0.9995 0.9821 <error: 0.00177001953125 0.001708984375 0.001708984375 0.001678466796875 0.9821 
65536 253982.154968262 65539.055557251 0.027496337890625 9236944.7880 40964.0111846924 6.2001 40964.0111846924 40964.0111846924 40952.2262268066 40952.2277069092 11.7834777832031 0.0008392333984375 0.0008544921875 0 0 0.9997 0.9997 0.9821 <error: 0.000885009765625 0.0008544921875 0.0008544921875 0.0008392333984375 0.9821 
