#set_size_in_keys sim_num_insn sim_num_refs sim_elapsed_time sim_inst_rate sim_num_branches sim_IPB bpred_bimod.lookups bpred_bimod.updates bpred_bimod.addr_hits bpred_bimod.dir_hits bpred_bimod.misses bpred_bimod.jr_hits bpred_bimod.jr_seen bpred_bimod.jr_non_ras_hits.PP bpred_bimod.jr_non_ras_seen.PP bpred_bimod.bpred_addr_rate bpred_bimod.bpred_dir_rate bpred_bimod.bpred_jr_rate bpred_bimod.bpred_jr_non_ras_rate.PP bpred_bimod.retstack_pushes bpred_bimod.retstack_pops bpred_bimod.used_ras.PP bpred_bimod.ras_hits.PP bpred_bimod.ras_rate.PP
4096 221.087646484375 51.792724609375 0.000244140625 905575.0000 34.278076171875 6.4498 34.278076171875 34.278076171875 27.807861328125 27.833740234375 6.4443359375 2.089111328125 2.089111328125 0 0 0.8112 0.8120 1.0000 <error: 2.089599609375 2.089111328125 2.089111328125 2.089111328125 1.0000 
8192 236.540771484375 55.8250732421875 0.0001220703125 1937742.0000 36.0758056640625 6.5568 36.0758056640625 36.0758056640625 29.180908203125 29.195068359375 6.8807373046875 2.0457763671875 2.0460205078125 0 0.0001220703125 0.8089 0.8093 0.9999 0.0000 2.046142578125 2.0458984375 2.0458984375 2.0457763671875 0.9999 
16384 248.055480957031 56.3457641601562 6.103515625e-05 4064141.0000 37.7984008789062 6.5626 37.7984008789062 37.7984008789062 30.393310546875 30.4000854492188 7.3983154296875 2.02276611328125 2.0228271484375 0 0 0.8041 0.8043 1.0000 <error: 2.02294921875 2.0228271484375 2.0228271484375 2.02276611328125 1.0000 
32768 265.063385009766 61.1089782714844 6.103515625e-05 4342798.5000 39.837646484375 6.6536 39.837646484375 39.837646484375 31.928955078125 31.9325256347656 7.90512084960938 2.01144409179688 2.01150512695312 0 3.0517578125e-05 0.8015 0.8016 1.0000 0.0000 2.01153564453125 2.011474609375 2.011474609375 2.01144409179688 1.0000 
65536 277.299514770508 61.9864501953125 6.103515625e-05 4543275.2500 41.668212890625 6.6549 41.668212890625 41.668212890625 33.2827758789062 33.2844696044922 8.38374328613281 2.00569152832031 2.00570678710938 0 0 0.7988 0.7988 1.0000 <error: 2.0057373046875 2.00570678710938 2.00570678710938 2.00569152832031 1.0000 
131072 294.671394348145 66.9261245727539 6.866455078125e-05 4291463.2222 43.7712249755859 6.7321 43.7712249755859 43.7712249755859 34.873405456543 34.8742904663086 8.89693450927734 2.00286102294922 2.00287628173828 0 7.62939453125e-06 0.7967 0.7967 1.0000 0.0000 2.00288391113281 2.00286865234375 2.00286865234375 2.00286102294922 1.0000 
262144 307.104267120361 67.8952217102051 6.866455078125e-05 4472530.0556 45.6351509094238 6.7296 45.6351509094238 45.6351509094238 36.2373123168945 36.2377319335938 9.39741897583008 2.00142288208008 2.00142669677734 0 0 0.7941 0.7941 1.0000 <error: 2.00143432617188 2.00142669677734 2.00142669677734 2.00142288208008 1.0000 
524288 324.571088790894 72.8797054290771 7.43865966796875e-05 4363300.6923 47.7553024291992 6.7965 47.7553024291992 47.7553024291992 37.8558692932129 37.8560905456543 9.89921188354492 2.0007152557373 2.00071907043457 0 1.9073486328125e-06 0.7927 0.7927 1.0000 0.0000 2.0007209777832 2.00071716308594 2.00071716308594 2.0007152557373 1.0000 
1048576 337.066745758057 73.8810157775879 7.62939453125e-05 4418001.2500 49.6280574798584 6.7919 49.6280574798584 49.6280574798584 39.2311449050903 39.2312602996826 10.3967971801758 2.00035858154297 2.00035953521729 0 9.5367431640625e-07 0.7905 0.7905 1.0000 0.0000 2.0003604888916 2.00035858154297 2.00035858154297 2.00035858154297 1.0000 
2097152 354.554022312164 78.87495470047 3.95774841308594e-05 8958478.0361 51.7517509460449 6.8511 51.7517509460449 51.7517509460449 40.8537240028381 40.8537821769714 10.8979687690735 2.00018072128296 2.00018119812012 4.76837158203125e-07 9.5367431640625e-07 0.7894 0.7894 1.0000 0.5000 2.00018119812012 2.0001802444458 2.0001802444458 2.0001802444458 1.0000 
4194304 367.053047657013 79.8731868267059 4.10079956054688e-05 8950767.8256 53.6264364719391 6.8446 53.6264364719391 53.6264364719391 42.2290740013123 42.2291028499603 11.3973336219788 2.00008964538574 2.00008988380432 0 2.38418579101562e-07 0.7875 0.7875 1.0000 0.0000 2.0000901222229 2.00008964538574 2.00008964538574 2.00008964538574 1.0000 
