#set_size_in_keys sim_num_insn sim_num_refs sim_elapsed_time sim_inst_rate sim_num_branches sim_IPB bpred_2lev.lookups bpred_2lev.updates bpred_2lev.addr_hits bpred_2lev.dir_hits bpred_2lev.misses bpred_2lev.jr_hits bpred_2lev.jr_seen bpred_2lev.jr_non_ras_hits.PP bpred_2lev.jr_non_ras_seen.PP bpred_2lev.bpred_addr_rate bpred_2lev.bpred_dir_rate bpred_2lev.bpred_jr_rate bpred_2lev.bpred_jr_non_ras_rate.PP bpred_2lev.retstack_pushes bpred_2lev.retstack_pops bpred_2lev.used_ras.PP bpred_2lev.ras_hits.PP bpred_2lev.ras_rate.PP
4096 210.08203125 55.925048828125 0.000244140625 860496.0000 27.582763671875 7.6164 27.582763671875 27.582763671875 21.363525390625 21.400146484375 6.1826171875 0.017822265625 0.01806640625 0 0 0.7745 0.7759 0.9865 <error: 0.0185546875 0.01806640625 0.01806640625 0.017822265625 0.9865 
8192 213.710693359375 57.61328125 0.0001220703125 1750718.0000 28.7763671875 7.4266 28.7763671875 28.7763671875 22.1297607421875 22.1494140625 6.626953125 0.0093994140625 0.009521484375 0 0 0.7690 0.7697 0.9872 <error: 0.009765625 0.009521484375 0.009521484375 0.0093994140625 0.9872 
16384 241.600891113281 64.1736450195312 6.103515625e-05 3958389.0000 31.4152221679688 7.6906 31.4152221679688 31.4152221679688 24.2683715820312 24.2783813476562 7.1368408203125 0.00518798828125 0.0052490234375 0 0 0.7725 0.7728 0.9884 <error: 0.00537109375 0.0052490234375 0.0052490234375 0.00518798828125 0.9884 
32768 245.952819824219 66.2295532226562 3.0517578125e-05 8059382.0000 32.6827697753906 7.5255 32.6827697753906 32.6827697753906 25.0819396972656 25.0868225097656 7.595947265625 0.003082275390625 0.00311279296875 0 0 0.7674 0.7676 0.9902 <error: 0.003173828125 0.00311279296875 0.00311279296875 0.003082275390625 0.9902 
65536 274.411895751953 73.0207672119141 3.0517578125e-05 8991929.0000 35.4024658203125 7.7512 35.4024658203125 35.4024658203125 27.2522583007812 27.2546691894531 8.14779663085938 0.0020294189453125 0.002044677734375 0 0 0.7698 0.7699 0.9925 <error: 0.0020751953125 0.002044677734375 0.002044677734375 0.0020294189453125 0.9925 
131072 278.89151763916 75.165283203125 3.0517578125e-05 9138717.2500 36.6964263916016 7.6000 36.6964263916016 36.6964263916016 28.0734634399414 28.0746688842773 8.62175750732422 0.00150299072265625 0.0015106201171875 0 0 0.7650 0.7651 0.9949 <error: 0.00152587890625 0.0015106201171875 0.0015106201171875 0.00150299072265625 0.9949 
262144 295.410015106201 79.6590766906738 3.4332275390625e-05 8604440.3333 38.703369140625 7.6327 38.703369140625 38.703369140625 29.5668640136719 29.5677223205566 9.13564682006836 0.00130081176757812 0.00131607055664062 0 7.62939453125e-06 0.7639 0.7640 0.9884 0.0000 0.00131607055664062 0.00130844116210938 0.00130844116210938 0.00130081176757812 0.9942 
524288 423.965431213379 114.219366073608 4.57763671875e-05 9261666.1667 58.4971446990967 7.2476 58.4971446990967 58.4971446990967 47.135311126709 47.1357765197754 11.3613681793213 1.00116539001465 1.00116729736328 0 1.9073486328125e-06 0.8058 0.8058 1.0000 0.0000 1.00116920471191 1.00116539001465 1.00116539001465 1.00116539001465 1.0000 
1048576 449.204507827759 122.116713523865 4.9591064453125e-05 9058174.3462 64.0562839508057 7.0127 64.0562839508057 64.0562839508057 52.4191722869873 52.4194221496582 11.6368618011475 1.00107288360596 1.00107383728027 0 9.5367431640625e-07 0.8183 0.8183 1.0000 0.0000 1.00107479095459 1.00107288360596 1.00107288360596 1.00107288360596 1.0000 
2097152 491.837174892426 133.034518718719 5.43594360351562e-05 9047871.1842 69.5981116294861 7.0668 69.5981116294861 69.5981116294861 56.566029548645 56.5661511421204 13.0319604873657 1.00102663040161 1.00102710723877 0 4.76837158203125e-07 0.8128 0.8128 1.0000 0.0000 1.00102758407593 1.00102663040161 1.00102663040161 1.00102663040161 1.0000 
4194304 519.334996700287 142.083025455475 5.76972961425781e-05 9001028.3223 74.995231628418 6.9249 74.995231628418 74.995231628418 60.6229588985443 60.6230201721191 14.3722114562988 1.00100350379944 1.00100374221802 0 2.38418579101562e-07 0.8084 0.8084 1.0000 0.0000 1.0010039806366 1.00100350379944 1.00100350379944 1.00100350379944 1.0000 
