#set_size_in_keys sim_num_insn sim_num_refs sim_elapsed_time sim_inst_rate sim_num_branches sim_IPB bpred_bimod.lookups bpred_bimod.updates bpred_bimod.addr_hits bpred_bimod.dir_hits bpred_bimod.misses bpred_bimod.jr_hits bpred_bimod.jr_seen bpred_bimod.jr_non_ras_hits.PP bpred_bimod.jr_non_ras_seen.PP bpred_bimod.bpred_addr_rate bpred_bimod.bpred_dir_rate bpred_bimod.bpred_jr_rate bpred_bimod.bpred_jr_non_ras_rate.PP bpred_bimod.retstack_pushes bpred_bimod.retstack_pops bpred_bimod.used_ras.PP bpred_bimod.ras_hits.PP bpred_bimod.ras_rate.PP
4096 210.08203125 55.925048828125 0.000244140625 860496.0000 27.582763671875 7.6164 27.582763671875 27.582763671875 21.314453125 21.3486328125 6.234130859375 0.017822265625 0.01806640625 0 0 0.7727 0.7740 0.9865 <error: 0.0185546875 0.01806640625 0.01806640625 0.017822265625 0.9865 
8192 213.710693359375 57.61328125 0.0001220703125 1750718.0000 28.7763671875 7.4266 28.7763671875 28.7763671875 22.4801025390625 22.4979248046875 6.2784423828125 0.0093994140625 0.009521484375 0 0 0.7812 0.7818 0.9872 <error: 0.009765625 0.009521484375 0.009521484375 0.0093994140625 0.9872 
16384 241.600891113281 64.1736450195312 6.103515625e-05 3958389.0000 31.4152221679688 7.6906 31.4152221679688 31.4152221679688 24.2100830078125 24.2192993164062 7.1959228515625 0.00518798828125 0.0052490234375 0 0 0.7706 0.7709 0.9884 <error: 0.00537109375 0.0052490234375 0.0052490234375 0.00518798828125 0.9884 
32768 245.952819824219 66.2295532226562 3.0517578125e-05 8059382.0000 32.6827697753906 7.5255 32.6827697753906 32.6827697753906 25.397705078125 25.4021911621094 7.28057861328125 0.003082275390625 0.00311279296875 0 0 0.7771 0.7772 0.9902 <error: 0.003173828125 0.00311279296875 0.00311279296875 0.003082275390625 0.9902 
65536 274.411895751953 73.0207672119141 3.0517578125e-05 8991929.0000 35.4024658203125 7.7512 35.4024658203125 35.4024658203125 27.21484375 27.2170867919922 8.18537902832031 0.0020294189453125 0.002044677734375 0 0 0.7687 0.7688 0.9925 <error: 0.0020751953125 0.002044677734375 0.002044677734375 0.0020294189453125 0.9925 
131072 278.89151763916 75.165283203125 3.0517578125e-05 9138717.2500 36.6964263916016 7.6000 36.6964263916016 36.6964263916016 28.4269256591797 28.4280624389648 8.26836395263672 0.00150299072265625 0.0015106201171875 0 0 0.7747 0.7747 0.9949 <error: 0.00152587890625 0.0015106201171875 0.0015106201171875 0.00150299072265625 0.9949 
262144 295.410015106201 79.6590766906738 3.0517578125e-05 9679995.3750 38.703369140625 7.6327 38.703369140625 38.703369140625 29.9312477111816 29.9320526123047 8.77131652832031 0.00130081176757812 0.00131607055664062 0 7.62939453125e-06 0.7733 0.7734 0.9884 0.0000 0.00131607055664062 0.00130844116210938 0.00130844116210938 0.00130081176757812 0.9942 
524288 423.965431213379 114.219366073608 4.57763671875e-05 9261666.1667 58.4971446990967 7.2476 58.4971446990967 58.4971446990967 46.6310920715332 46.6315059661865 11.8656387329102 1.00116539001465 1.00116729736328 0 1.9073486328125e-06 0.7972 0.7972 1.0000 0.0000 1.00116920471191 1.00116539001465 1.00116539001465 1.00116539001465 1.0000 
1048576 449.204507827759 122.116713523865 4.9591064453125e-05 9058174.3462 64.0562839508057 7.0127 64.0562839508057 64.0562839508057 51.8975191116333 51.8977317810059 12.1585521697998 1.00107288360596 1.00107383728027 0 9.5367431640625e-07 0.8102 0.8102 1.0000 0.0000 1.00107479095459 1.00107288360596 1.00107288360596 1.00107288360596 1.0000 
2097152 491.837174892426 133.034518718719 5.38825988769531e-05 9127940.8407 69.5981116294861 7.0668 69.5981116294861 69.5981116294861 55.745849609375 55.7459564208984 13.8521552085876 1.00102663040161 1.00102710723877 0 4.76837158203125e-07 0.8010 0.8010 1.0000 0.0000 1.00102758407593 1.00102663040161 1.00102663040161 1.00102663040161 1.0000 
4194304 519.334996700287 142.083025455475 5.69820404052734e-05 9114011.9414 74.995231628418 6.9249 74.995231628418 74.995231628418 60.1169247627258 60.1169781684875 14.8782534599304 1.00100350379944 1.00100374221802 0 2.38418579101562e-07 0.8016 0.8016 1.0000 0.0000 1.0010039806366 1.00100350379944 1.00100350379944 1.00100350379944 1.0000 
