#set_size_in_keys sim_num_insn sim_num_refs sim_elapsed_time sim_inst_rate il1.accesses il1.hits il1.misses il1.replacements il1.writebacks il1.invalidations il1.miss_rate il1.repl_rate il1.wb_rate il1.inv_rate dl1.accesses dl1.hits dl1.misses dl1.replacements dl1.writebacks dl1.invalidations dl1.miss_rate dl1.repl_rate dl1.wb_rate dl1.inv_rate dl2.accesses dl2.hits dl2.misses dl2.replacements dl2.writebacks dl2.invalidations dl2.miss_rate dl2.repl_rate dl2.wb_rate dl2.inv_rate itlb.accesses itlb.hits itlb.misses itlb.replacements itlb.writebacks itlb.invalidations itlb.miss_rate itlb.repl_rate itlb.wb_rate itlb.inv_rate dtlb.accesses dtlb.hits dtlb.misses dtlb.replacements dtlb.writebacks dtlb.invalidations dtlb.miss_rate dtlb.repl_rate dtlb.wb_rate dtlb.inv_rate ld_text_base ld_text_size ld_data_base ld_data_size ld_stack_base ld_stack_size ld_prog_entry ld_environ_base ld_target_big_endian mem.page_count mem.page_mem mem.ptab_misses mem.ptab_accesses mem.ptab_miss_rate
4096 210.08935546875 55.92333984375 0.000244140625 860526.0000 210.08935546875 209.93505859375 0.154296875 0.095947265625 0 0 0.0007 0.0005 0.0000 0.0000 59.94287109375 55.945556640625 3.997314453125 3.934814453125 2.307861328125 0 0.0667 0.0656 0.0385 0.0000 6.45947265625 5.9765625 0.48291015625 0.064208984375 0.04736328125 0 0.0748 0.0099 0.0073 0.0000 210.08935546875 210.08544921875 0.00390625 0 0 0 0.0000 0.0000 0.0000 0.0000 59.94287109375 59.93896484375 0.00390625 0 0 0 0.0001 0.0000 0.0000 0.0000 0x00400000 23.7109375 0x10000000 2.0166015625 0x7fffc000 4 0x00400140 0x7fff8000 0 0.009765625 160k 0.009765625 1105.91552734375 0.0000 
8192 213.835205078125 57.6357421875 0.0001220703125 1751738.0000 213.835205078125 213.751220703125 0.083984375 0.0548095703125 0 0 0.0004 0.0003 0.0000 0.0000 61.6455078125 57.7353515625 3.91015625 3.87890625 2.239501953125 0 0.0634 0.0629 0.0363 0.0000 6.233642578125 5.8624267578125 0.3712158203125 0.030517578125 0.0191650390625 0 0.0596 0.0049 0.0031 0.0000 213.835205078125 213.833129882812 0.0020751953125 0 0 0 0.0000 0.0000 0.0000 0.0000 61.6455078125 61.642578125 0.0029296875 0 0 0 0.0000 0.0000 0.0000 0.0000 0x00400000 11.859375 0x10000000 1.00830078125 0x7fffc000 2 0x00400140 0x7fff8000 0 0.005859375 192k 0.005859375 1051.49145507812 0.0000 
16384 241.726928710938 64.1953735351562 6.103515625e-05 3960454.0000 241.726928710938 241.682312011719 0.04461669921875 0.0301513671875 0 0 0.0002 0.0001 0.0000 0.0000 68.2002563476562 63.73291015625 4.46734619140625 4.45172119140625 2.4940185546875 0 0.0655 0.0653 0.0366 0.0000 7.0059814453125 6.69696044921875 0.30902099609375 0.011474609375 0.00811767578125 0 0.0441 0.0016 0.0012 0.0000 241.726928710938 241.725891113281 0.00103759765625 0 0 0 0.0000 0.0000 0.0000 0.0000 68.2002563476562 68.1978149414062 0.00244140625 0 0 0 0.0000 0.0000 0.0000 0.0000 0x00400000 5.9306640625 0x10000000 0.504150390625 0x7fffc000 1 0x00400140 0x7fff8000 0 0.00390625 256k 0.00390625 1139.74389648438 0.0000 
32768 246.029327392578 66.2408447265625 6.103515625e-05 4030944.5000 246.029327392578 246.003204345703 0.026123046875 0.018829345703125 0 0 0.0001 0.0001 0.0000 0.0000 70.2432861328125 65.8180236816406 4.42526245117188 4.41744995117188 2.46896362304688 0 0.0630 0.0629 0.0351 0.0000 6.92034912109375 6.64019775390625 0.2801513671875 0.006683349609375 0.00408935546875 0 0.0405 0.0010 0.0006 0.0000 246.029327392578 246.02880859375 0.000518798828125 0 0 0 0.0000 0.0000 0.0000 0.0000 70.2432861328125 70.2410888671875 0.002197265625 0 0 0 0.0000 0.0000 0.0000 0.0000 0x00400000 2.9658203125 0x10000000 0.2520751953125 0x7fffc000 0.5 0x00400140 0x7fff8000 0 0.0029296875 384k 0.0029296875 1142.82464599609 0.0000 
65536 274.459671020508 73.0252838134766 7.62939453125e-05 3597397.8000 274.459671020508 274.443572998047 0.0160980224609375 0.0124664306640625 0 0 0.0001 0.0000 0.0000 0.0000 77.0265045166016 72.0250244140625 5.00148010253906 4.99757385253906 2.73828125 0 0.0649 0.0649 0.0355 0.0000 7.755859375 7.49125671386719 0.264602661132812 0.00286865234375 0.0020294189453125 0 0.0341 0.0004 0.0003 0.0000 274.459671020508 274.459411621094 0.0002593994140625 0 0 0 0.0000 0.0000 0.0000 0.0000 77.0265045166016 77.0233917236328 0.00311279296875 0.00115966796875 0.00079345703125 0 0.0000 0.0000 0.0000 0.0000 0x00400000 1.48291015625 0x10000000 0.12603759765625 0x7fffc000 0.25 0x00400140 0x7fff8000 0 0.00244140625 640k 0.00244140625 1261.00207519531 0.0000 
131072 278.941925048828 75.1707611083984 7.62939453125e-05 3656147.6000 278.941925048828 278.930267333984 0.01165771484375 0.00983428955078125 0 0 0.0000 0.0000 0.0000 0.0000 79.1713714599609 74.1958618164062 4.97550964355469 4.97355651855469 2.72451782226562 0 0.0628 0.0628 0.0344 0.0000 7.71168518066406 7.45414733886719 0.257537841796875 0.00167083740234375 0.0010223388671875 0 0.0334 0.0002 0.0001 0.0000 278.941925048828 278.941795349121 0.00012969970703125 0 0 0 0.0000 0.0000 0.0000 0.0000 79.1713714599609 79.1528778076172 0.01849365234375 0.01751708984375 0.0102920532226562 0 0.0002 0.0002 0.0001 0.0000 0x00400000 0.741455078125 0x10000000 0.063018798828125 0x7fffc000 0.125 0x00400140 0x7fff8000 0 0.002197265625 1152k 0.002197265625 1278.66563415527 0.0000 
262144 295.448440551758 79.6614036560059 8.0108642578125e-05 3688096.9524 295.448440551758 295.44161605835 0.00682449340820312 0.00590896606445312 0 0 0.0000 0.0000 0.0000 0.0000 83.6617088317871 78.4085884094238 5.25312042236328 5.25214385986328 2.85538864135742 0 0.0628 0.0628 0.0341 0.0000 8.11533355712891 5.87814712524414 2.23718643188477 2.10381698608398 1.40872192382812 0 0.2757 0.2592 0.1736 0.0000 295.448440551758 295.448375701904 6.4849853515625e-05 0 0 0 0.0000 0.0000 0.0000 0.0000 83.6617088317871 83.6410446166992 0.0206642150878906 0.0201759338378906 0.0115585327148438 0 0.0002 0.0002 0.0001 0.0000 0x00400000 0.3707275390625 0x10000000 0.0315093994140625 0x7fffc000 0.0625 0x00400140 0x7fff8000 0 0.0020751953125 2176k 0.0020751953125 1351.39477539062 0.0000 
524288 426.007179260254 116.2223777771 0.000120162963867188 3545245.2698 426.007179260254 419.505363464355 6.50181579589844 6.50132751464844 0 0 0.0153 0.0153 0.0000 0.0000 120.22253036499 114.090215682983 6.13231468200684 6.13182640075684 3.41964530944824 0 0.0510 0.0510 0.0284 0.0000 16.0537757873535 13.6757373809814 2.37803840637207 2.25303840637207 1.39497184753418 0 0.1481 0.1403 0.0869 0.0000 426.007179260254 426.007146835327 3.24249267578125e-05 0 0 0 0.0000 0.0000 0.0000 0.0000 120.22253036499 120.200160980225 0.022369384765625 0.022125244140625 0.0125408172607422 0 0.0002 0.0002 0.0001 0.0000 0x00400000 0.18536376953125 0x10000000 0.0157546997070312 0x7fffc000 0.03125 0x00400140 0x7fff8000 0 0.00202560424804688 4248k 0.0025177001953125 1945.61257553101 0.0000 
1048576 451.238024711609 124.118430137634 0.00112056732177734 402687.1174 451.238024711609 444.737071037292 6.50095367431641 6.50070953369141 0 0 0.0144 0.0144 0.0000 0.0000 128.11850643158 122.276931762695 5.84157466888428 5.84133052825928 3.28249263763428 0 0.0456 0.0456 0.0256 0.0000 15.625020980835 13.1587982177734 2.46622276306152 2.40372276306152 1.51030826568604 0 0.1578 0.1538 0.0967 0.0000 451.238024711609 451.238008499146 1.62124633789062e-05 0 0 0 0.0000 0.0000 0.0000 0.0000 128.11850643158 128.096070289612 0.0224361419677734 0.0223140716552734 0.0125904083251953 0 0.0002 0.0002 0.0001 0.0000 0x00400000 0.092681884765625 0x10000000 0.00787734985351562 0x7fffc000 0.015625 0x00400140 0x7fff8000 0 0.00198936462402344 8344k 0.0764312744140625 2061.7585105896 0.0000 
2097152 493.870913505554 135.035810947418 0.00126075744628906 391725.5575 493.870913505554 487.370444774628 6.50046873092651 6.50034666061401 0 0 0.0132 0.0132 0.0000 0.0000 139.035849094391 132.892178535461 6.14367055892944 6.14354848861694 3.43299531936646 0 0.0442 0.0442 0.0247 0.0000 16.0771346092224 13.6017293930054 2.47540521621704 2.44415521621704 1.47043800354004 0 0.1540 0.1520 0.0915 0.0000 493.870913505554 493.870905399323 8.10623168945312e-06 0 0 0 0.0000 0.0000 0.0000 0.0000 139.035849094391 139.004842281342 0.0310068130493164 0.0309457778930664 0.0126137733459473 0 0.0002 0.0002 0.0001 0.0000 0x00400000 0.0463409423828125 0x10000000 0.00393867492675781 0x7fffc000 0.0078125 0x00400140 0x7fff8000 0 0.00197410583496094 16560k 0.0405049324035645 2253.840051651 0.0000 
4194304 521.372492790222 144.085593223572 0.00131678581237793 395943.2794 521.372492790222 514.872254133224 6.50023865699768 6.50017762184143 0 0 0.0125 0.0125 0.0000 0.0000 148.085612297058 142.22479391098 5.86081838607788 5.86075735092163 3.3010470867157 0 0.0396 0.0396 0.0223 0.0000 15.6621041297913 13.1869974136353 2.47510671615601 2.45948171615601 1.54157018661499 0 0.1580 0.1570 0.0984 0.0000 521.372492790222 521.372488737106 4.05311584472656e-06 0 0 0 0.0000 0.0000 0.0000 0.0000 148.085612297058 147.974236249924 0.111376047134399 0.111345529556274 0.0126183032989502 0 0.0008 0.0008 0.0001 0.0000 0x00400000 0.0231704711914062 0x10000000 0.00196933746337891 0x7fffc000 0.00390625 0x00400140 0x7fff8000 0 0.00196647644042969 32992k 0.0205790996551514 2381.80354547501 0.0000 
