#set_size_in_keys sim_num_insn sim_num_refs sim_elapsed_time sim_inst_rate il1.accesses il1.hits il1.misses il1.replacements il1.writebacks il1.invalidations il1.miss_rate il1.repl_rate il1.wb_rate il1.inv_rate dl1.accesses dl1.hits dl1.misses dl1.replacements dl1.writebacks dl1.invalidations dl1.miss_rate dl1.repl_rate dl1.wb_rate dl1.inv_rate dl2.accesses dl2.hits dl2.misses dl2.replacements dl2.writebacks dl2.invalidations dl2.miss_rate dl2.repl_rate dl2.wb_rate dl2.inv_rate itlb.accesses itlb.hits itlb.misses itlb.replacements itlb.writebacks itlb.invalidations itlb.miss_rate itlb.repl_rate itlb.wb_rate itlb.inv_rate dtlb.accesses dtlb.hits dtlb.misses dtlb.replacements dtlb.writebacks dtlb.invalidations dtlb.miss_rate dtlb.repl_rate dtlb.wb_rate dtlb.inv_rate ld_text_base ld_text_size ld_data_base ld_data_size ld_stack_base ld_stack_size ld_prog_entry ld_environ_base ld_target_big_endian mem.page_count mem.page_mem mem.ptab_misses mem.ptab_accesses mem.ptab_miss_rate
4096 14857.1389160156 6143.09301757812 0.006103515625 2434193.6400 14857.1389160156 14857.0627441406 0.076171875 0.013671875 0 0 0.0000 0.0000 0.0000 0.0000 6147.11254882812 5954.37915039062 192.7333984375 192.6708984375 184.162109375 0 0.0314 0.0313 0.0300 0.0000 376.9716796875 376.670166015625 0.301513671875 0 0 0 0.0008 0.0000 0.0000 0.0000 14857.1389160156 14857.1362304688 0.002685546875 0 0 0 0.0000 0.0000 0.0000 0.0000 6147.11254882812 6147.10986328125 0.002685546875 0 0 0 0.0000 0.0000 0.0000 0.0000 0x00400000 18.0078125 0x10000000 2.0126953125 0x7fffc000 4 0x00400140 0x7fff8000 0 0.00732421875 120k 0.00732421875 71834.4926757812 0.0000 
8192 29687.8634033203 12276.0723876953 0.01025390625 2895273.5357 29687.8634033203 29687.8251953125 0.0382080078125 0.0069580078125 0 0 0.0000 0.0000 0.0000 0.0000 12280.0821533203 11799.2779541016 480.80419921875 480.77294921875 443.449829101562 0 0.0392 0.0392 0.0361 0.0000 924.292236328125 924.078857421875 0.21337890625 0 0 0 0.0002 0.0000 0.0000 0.0000 29687.8634033203 29687.8620605469 0.0013427734375 0 0 0 0.0000 0.0000 0.0000 0.0000 12280.0821533203 12280.0803222656 0.0018310546875 0 0 0 0.0000 0.0000 0.0000 0.0000 0x00400000 9.0078125 0x10000000 1.00634765625 0x7fffc000 2 0x00400140 0x7fff8000 0 0.004150390625 136k 0.004150390625 143367.497314453 0.0000 
16384 59515.6762695312 24651.091003418 0.019287109375 3085774.8101 59515.6762695312 59515.6566162109 0.0196533203125 0.0040283203125 0 0 0.0000 0.0000 0.0000 0.0000 24655.0958862305 23646.2562866211 1008.83959960938 1008.82397460938 919.200073242188 0 0.0409 0.0409 0.0373 0.0000 1928.05932617188 1927.88952636719 0.1697998046875 0 0 0 0.0001 0.0000 0.0000 0.0000 59515.6762695312 59515.6755981445 0.00067138671875 0 0 0 0.0000 0.0000 0.0000 0.0000 24655.0958862305 24655.0944824219 0.00140380859375 0 0 0 0.0000 0.0000 0.0000 0.0000 0x00400000 4.5048828125 0x10000000 0.503173828125 0x7fffc000 1 0x00400140 0x7fff8000 0 0.0025634765625 168k 0.0025634765625 287400.842407227 0.0000 
32768 118726.694641113 49106.7762756348 0.037353515625 3178461.0539 118726.694641113 118726.685058594 0.00958251953125 0.00177001953125 0 0 0.0000 0.0000 0.0000 0.0000 49110.778717041 47069.9214172363 2040.85729980469 2040.84948730469 1844.50601196289 0 0.0416 0.0416 0.0376 0.0000 3885.37289428711 3885.22576904297 0.147125244140625 0 0 0 0.0000 0.0000 0.0000 0.0000 118726.694641113 118726.69430542 0.000335693359375 0 0 0 0.0000 0.0000 0.0000 0.0000 49110.778717041 49110.7775268555 0.001190185546875 0 0 0 0.0000 0.0000 0.0000 0.0000 0x00400000 2.2529296875 0x10000000 0.2515869140625 0x7fffc000 0.5 0x00400140 0x7fff8000 0 0.00177001953125 232k 0.00177001953125 573142.311706543 0.0000 
65536 237481.255203247 98238.054397583 0.06640625 3576188.3136 237481.255203247 237481.250457764 0.0047454833984375 0.0008392333984375 0 0 0.0000 0.0000 0.0000 0.0000 98242.0556182861 94149.189453125 4092.86616516113 4092.86225891113 3687.22627258301 0 0.0417 0.0417 0.0375 0.0000 7780.09718322754 7779.96115112305 0.136032104492188 0 0 0 0.0000 0.0000 0.0000 0.0000 237481.255203247 237481.2550354 0.0001678466796875 0 0 0 0.0000 0.0000 0.0000 0.0000 98242.0556182861 98242.0545349121 0.0010833740234375 0 0 0 0.0000 0.0000 0.0000 0.0000 0x00400000 1.12646484375 0x10000000 0.12579345703125 0x7fffc000 0.25 0x00400140 0x7fff8000 0 0.001373291015625 360k 0.001373291015625 1146416.11990356 0.0000 
