#set_size_in_keys sim_num_insn sim_num_refs sim_elapsed_time sim_inst_rate il1.accesses il1.hits il1.misses il1.replacements il1.writebacks il1.invalidations il1.miss_rate il1.repl_rate il1.wb_rate il1.inv_rate dl1.accesses dl1.hits dl1.misses dl1.replacements dl1.writebacks dl1.invalidations dl1.miss_rate dl1.repl_rate dl1.wb_rate dl1.inv_rate dl2.accesses dl2.hits dl2.misses dl2.replacements dl2.writebacks dl2.invalidations dl2.miss_rate dl2.repl_rate dl2.wb_rate dl2.inv_rate itlb.accesses itlb.hits itlb.misses itlb.replacements itlb.writebacks itlb.invalidations itlb.miss_rate itlb.repl_rate itlb.wb_rate itlb.inv_rate dtlb.accesses dtlb.hits dtlb.misses dtlb.replacements dtlb.writebacks dtlb.invalidations dtlb.miss_rate dtlb.repl_rate dtlb.wb_rate dtlb.inv_rate ld_text_base ld_text_size ld_data_base ld_data_size ld_stack_base ld_stack_size ld_prog_entry ld_environ_base ld_target_big_endian mem.page_count mem.page_mem mem.ptab_misses mem.ptab_accesses mem.ptab_miss_rate
4096 14857.1389160156 6143.09301757812 0.00439453125 3380824.5000 14857.1389160156 14857.0498046875 0.089111328125 0.03955078125 0 0 0.0000 0.0000 0.0000 0.0000 6147.11254882812 6018.12915039062 128.9833984375 128.9208984375 122.348876953125 0 0.0210 0.0210 0.0199 0.0000 251.42138671875 251.11767578125 0.3037109375 0.01904296875 0.000732421875 0 0.0012 0.0001 0.0000 0.0000 14857.1389160156 14857.1362304688 0.002685546875 0 0 0 0.0000 0.0000 0.0000 0.0000 6147.11254882812 6147.10986328125 0.002685546875 0 0 0 0.0000 0.0000 0.0000 0.0000 0x00400000 18.0078125 0x10000000 2.0126953125 0x7fffc000 4 0x00400140 0x7fff8000 0 0.00732421875 120k 0.00732421875 71834.4926757812 0.0000 
8192 29687.8634033203 12276.0723876953 0.0091552734375 3242706.3600 29687.8634033203 29687.8187255859 0.044677734375 0.019775390625 0 0 0.0000 0.0000 0.0000 0.0000 12280.0821533203 11831.1529541016 448.92919921875 448.89794921875 417.789184570312 0 0.0366 0.0366 0.0340 0.0000 866.763061523438 866.548706054688 0.21435546875 0.0093994140625 0.0001220703125 0 0.0002 0.0000 0.0000 0.0000 29687.8634033203 29687.8620605469 0.0013427734375 0 0 0 0.0000 0.0000 0.0000 0.0000 12280.0821533203 12280.0803222656 0.0018310546875 0 0 0 0.0000 0.0000 0.0000 0.0000 0x00400000 9.0078125 0x10000000 1.00634765625 0x7fffc000 2 0x00400140 0x7fff8000 0 0.004150390625 136k 0.004150390625 143367.497314453 0.0000 
16384 59515.6762695312 24651.091003418 0.01837158203125 3239550.9635 59515.6762695312 59515.6531982422 0.0230712890625 0.0103759765625 0 0 0.0000 0.0000 0.0000 0.0000 24655.0958862305 23662.1937866211 992.902099609375 992.886474609375 910.470642089844 0 0.0403 0.0403 0.0369 0.0000 1903.39581298828 1903.22564697266 0.170166015625 0.00457763671875 6.103515625e-05 0 0.0001 0.0000 0.0000 0.0000 59515.6762695312 59515.6755981445 0.00067138671875 0 0 0 0.0000 0.0000 0.0000 0.0000 24655.0958862305 24655.0944824219 0.00140380859375 0 0 0 0.0000 0.0000 0.0000 0.0000 0x00400000 4.5048828125 0x10000000 0.503173828125 0x7fffc000 1 0x00400140 0x7fff8000 0 0.0025634765625 168k 0.0025634765625 287400.842407227 0.0000 
32768 118726.694641113 49106.7762756348 0.036468505859375 3255595.2552 118726.694641113 118726.683441162 0.011199951171875 0.00494384765625 0 0 0.0000 0.0000 0.0000 0.0000 49110.778717041 47077.8901672363 2032.88854980469 2032.88073730469 1841.95816040039 0 0.0414 0.0414 0.0375 0.0000 3874.85791015625 3874.71060180664 0.147308349609375 0.002288818359375 0 0 0.0000 0.0000 0.0000 0.0000 118726.694641113 118726.69430542 0.000335693359375 0 0 0 0.0000 0.0000 0.0000 0.0000 49110.778717041 49110.7775268555 0.001190185546875 0 0 0 0.0000 0.0000 0.0000 0.0000 0x00400000 2.2529296875 0x10000000 0.2515869140625 0x7fffc000 0.5 0x00400140 0x7fff8000 0 0.00177001953125 232k 0.00177001953125 573142.311706543 0.0000 
65536 237481.255203247 98238.054397583 0.0655364990234375 3623648.7872 237481.255203247 237481.249649048 0.00555419921875 0.0024261474609375 0 0 0.0000 0.0000 0.0000 0.0000 98242.0556182861 94153.173828125 4088.88179016113 4088.87788391113 3686.52061462402 0 0.0416 0.0416 0.0375 0.0000 7775.40795898438 7775.27183532715 0.136123657226562 0.0011444091796875 0 0 0.0000 0.0000 0.0000 0.0000 237481.255203247 237481.2550354 0.0001678466796875 0 0 0 0.0000 0.0000 0.0000 0.0000 98242.0556182861 98242.0545349121 0.0010833740234375 0 0 0 0.0000 0.0000 0.0000 0.0000 0x00400000 1.12646484375 0x10000000 0.12579345703125 0x7fffc000 0.25 0x00400140 0x7fff8000 0 0.001373291015625 360k 0.001373291015625 1146416.11990356 0.0000 
