#set_size_in_keys sim_num_insn sim_num_refs sim_elapsed_time sim_inst_rate sim_num_branches sim_IPB bpred_2lev.lookups bpred_2lev.updates bpred_2lev.addr_hits bpred_2lev.dir_hits bpred_2lev.misses bpred_2lev.jr_hits bpred_2lev.jr_seen bpred_2lev.jr_non_ras_hits.PP bpred_2lev.jr_non_ras_seen.PP bpred_2lev.bpred_addr_rate bpred_2lev.bpred_dir_rate bpred_2lev.bpred_jr_rate bpred_2lev.bpred_jr_non_ras_rate.PP bpred_2lev.retstack_pushes bpred_2lev.retstack_pops bpred_2lev.used_ras.PP bpred_2lev.ras_hits.PP bpred_2lev.ras_rate.PP
4096 240.70751953125 45.330322265625 0.000244140625 985938.0000 40.04833984375 6.0104 40.04833984375 40.04833984375 32.136474609375 32.159423828125 7.888916015625 0.013427734375 0.013671875 0 0 0.8024 0.8030 0.9821 <error: 0.01416015625 0.013671875 0.013671875 0.013427734375 0.9821 
8192 270.861694335938 50.540771484375 0.0001220703125 2218899.0000 45.10888671875 6.0046 45.10888671875 45.10888671875 36.2952880859375 36.306396484375 8.802490234375 0.0067138671875 0.0068359375 0 0 0.8046 0.8049 0.9821 <error: 0.007080078125 0.0068359375 0.0068359375 0.0067138671875 0.9821 
16384 298.221008300781 55.4434204101562 0.000244140625 1221513.2500 49.68603515625 6.0021 49.68603515625 49.68603515625 39.6657104492188 39.6716918945312 10.0143432617188 0.00335693359375 0.00341796875 0 0 0.7983 0.7984 0.9821 <error: 0.0035400390625 0.00341796875 0.00341796875 0.00335693359375 0.9821 
32768 323.352569580078 60.0536193847656 0.000274658203125 1177290.7778 53.8834228515625 6.0010 53.8834228515625 53.8834228515625 43.0479736328125 43.0508422851562 10.8325805664062 0.001678466796875 0.001708984375 0 0 0.7989 0.7990 0.9821 <error: 0.00177001953125 0.001708984375 0.001708984375 0.001678466796875 0.9821 
65536 346.406448364258 63.8568420410156 0.00030517578125 1135104.6500 57.7300720214844 6.0005 57.7300720214844 57.7300720214844 46.3526916503906 46.3541107177734 11.3759613037109 0.0008392333984375 0.0008544921875 0 0 0.8029 0.8029 0.9821 <error: 0.000885009765625 0.0008544921875 0.0008544921875 0.0008392333984375 0.9821 
131072 375.842018127441 69.2431793212891 0.00032806396484375 1145636.3953 62.6381683349609 6.0002 62.6381683349609 62.6381683349609 50.0180206298828 50.0187149047852 12.6194534301758 0.00041961669921875 0.00042724609375 0 0 0.7985 0.7985 0.9821 <error: 0.0004425048828125 0.00042724609375 0.00042724609375 0.00041961669921875 0.9821 
262144 387.343677520752 71.6503562927246 0.00034332275390625 1128220.2333 64.5562019348145 6.0001 64.5562019348145 64.5562019348145 51.1064300537109 51.1067810058594 13.4494209289551 0.000209808349609375 0.000213623046875 0 0 0.7917 0.7917 0.9821 <error: 0.00022125244140625 0.000213623046875 0.000213623046875 0.000209808349609375 0.9821 
524288 416.340074539185 76.9782104492188 0.000370025634765625 1125165.4897 69.3894710540771 6.0000 69.3894710540771 69.3894710540771 54.9495735168457 54.9497451782227 14.4397258758545 0.000104904174804688 0.0001068115234375 0 0 0.7919 0.7919 0.9821 <error: 0.000110626220703125 0.0001068115234375 0.0001068115234375 0.000104904174804688 0.9821 
1048576 441.764039993286 81.7131023406982 0.000392913818359375 1124328.0825 73.6270685195923 6.0000 73.6270685195923 73.6270685195923 58.1977252960205 58.1978139877319 15.4292545318604 5.24520874023438e-05 5.340576171875e-05 0 0 0.7904 0.7904 0.9821 <error: 5.53131103515625e-05 5.340576171875e-05 5.340576171875e-05 5.24520874023438e-05 0.9821 
2097152 475.555016040802 87.8437151908875 0.000423431396484375 1123098.1453 79.2590346336365 6.0000 79.2590346336365 79.2590346336365 62.9307012557983 62.9307456016541 16.3282890319824 2.62260437011719e-05 2.6702880859375e-05 0 0 0.7940 0.7940 0.9821 <error: 2.76565551757812e-05 2.6702880859375e-05 2.6702880859375e-05 2.62260437011719e-05 0.9821 
4194304 494.917925596237 91.5702593326569 6.12735748291016e-05 8077183.7938 82.4862530231476 6.0000 82.4862530231476 82.4862530231476 65.1935777664185 65.1935997009277 17.2926533222198 1.31130218505859e-05 1.33514404296875e-05 0 0 0.7904 0.7904 0.9821 <error: 1.38282775878906e-05 1.33514404296875e-05 1.33514404296875e-05 1.31130218505859e-05 0.9821 
