#set_size_in_keys sim_num_insn sim_num_refs sim_elapsed_time sim_inst_rate il1.accesses il1.hits il1.misses il1.replacements il1.writebacks il1.invalidations il1.miss_rate il1.repl_rate il1.wb_rate il1.inv_rate dl1.accesses dl1.hits dl1.misses dl1.replacements dl1.writebacks dl1.invalidations dl1.miss_rate dl1.repl_rate dl1.wb_rate dl1.inv_rate dl2.accesses dl2.hits dl2.misses dl2.replacements dl2.writebacks dl2.invalidations dl2.miss_rate dl2.repl_rate dl2.wb_rate dl2.inv_rate itlb.accesses itlb.hits itlb.misses itlb.replacements itlb.writebacks itlb.invalidations itlb.miss_rate itlb.repl_rate itlb.wb_rate itlb.inv_rate dtlb.accesses dtlb.hits dtlb.misses dtlb.replacements dtlb.writebacks dtlb.invalidations dtlb.miss_rate dtlb.repl_rate dtlb.wb_rate dtlb.inv_rate ld_text_base ld_text_size ld_data_base ld_data_size ld_stack_base ld_stack_size ld_prog_entry ld_environ_base ld_target_big_endian mem.page_count mem.page_mem mem.ptab_misses mem.ptab_accesses mem.ptab_miss_rate
4096 210.073974609375 55.919189453125 0.00146484375 143410.5000 210.073974609375 209.93896484375 0.135009765625 0.072509765625 0 0 0.0006 0.0003 0.0000 0.0000 59.938720703125 56.601806640625 3.3369140625 3.2744140625 1.82763671875 0 0.0557 0.0546 0.0305 0.0000 5.299560546875 4.824951171875 0.474609375 0 0 0 0.0896 0.0000 0.0000 0.0000 210.073974609375 210.071044921875 0.0029296875 0 0 0 0.0000 0.0000 0.0000 0.0000 59.938720703125 59.934814453125 0.00390625 0 0 0 0.0001 0.0000 0.0000 0.0000 0x00400000 21.08203125 0x10000000 2.0166015625 0x7fffc000 4 0x00400140 0x7fff8000 0 0.00927734375 152k 0.00927734375 1090.34228515625 0.0000 
8192 213.706787109375 57.6104736328125 0.0009765625 218835.7500 213.706787109375 213.635375976562 0.0714111328125 0.0401611328125 0 0 0.0003 0.0002 0.0000 0.0000 61.6202392578125 58.340087890625 3.2801513671875 3.2489013671875 1.7894287109375 0 0.0532 0.0527 0.0290 0.0000 5.1409912109375 4.7760009765625 0.364990234375 0 0 0 0.0710 0.0000 0.0000 0.0000 213.706787109375 213.705322265625 0.00146484375 0 0 0 0.0000 0.0000 0.0000 0.0000 61.6202392578125 61.6173095703125 0.0029296875 0 0 0 0.0000 0.0000 0.0000 0.0000 0x00400000 10.544921875 0x10000000 1.00830078125 0x7fffc000 2 0x00400140 0x7fff8000 0 0.005615234375 184k 0.005615234375 1043.17553710938 0.0000 
16384 241.598999023438 64.1723022460938 0.0008544921875 282739.8571 241.598999023438 241.563903808594 0.03509521484375 0.01947021484375 0 0 0.0001 0.0001 0.0000 0.0000 68.1771850585938 64.42431640625 3.75286865234375 3.73724365234375 2.02203369140625 0 0.0550 0.0548 0.0297 0.0000 5.80999755859375 5.5030517578125 0.30694580078125 0 0 0 0.0528 0.0000 0.0000 0.0000 241.598999023438 241.598266601562 0.000732421875 0 0 0 0.0000 0.0000 0.0000 0.0000 68.1771850585938 68.1747436523438 0.00244140625 0 0 0 0.0000 0.0000 0.0000 0.0000 0x00400000 5.2734375 0x10000000 0.504150390625 0x7fffc000 1 0x00400140 0x7fff8000 0 0.0037841796875 248k 0.0037841796875 1135.31018066406 0.0000 
32768 245.951904296875 66.2289123535156 0.000762939453125 322374.0800 245.951904296875 245.933959960938 0.0179443359375 0.0101318359375 0 0 0.0001 0.0000 0.0000 0.0000 70.2313537597656 66.4932556152344 3.73809814453125 3.73028564453125 2.01162719726562 0 0.0532 0.0531 0.0286 0.0000 5.76766967773438 5.48886108398438 0.27880859375 0 0 0 0.0483 0.0000 0.0000 0.0000 245.951904296875 245.951538085938 0.0003662109375 0 0 0 0.0000 0.0000 0.0000 0.0000 70.2313537597656 70.2291564941406 0.002197265625 0 0 0 0.0000 0.0000 0.0000 0.0000 0x00400000 2.63720703125 0x10000000 0.2520751953125 0x7fffc000 0.5 0x00400140 0x7fff8000 0 0.00286865234375 376k 0.00286865234375 1140.55316162109 0.0000 
65536 274.41145324707 73.0204620361328 0.0007171630859375 382634.6596 274.41145324707 274.402801513672 0.0086517333984375 0.0047454833984375 0 0 0.0000 0.0000 0.0000 0.0000 77.0216827392578 72.7898254394531 4.23185729980469 4.22795104980469 2.25813293457031 0 0.0549 0.0549 0.0293 0.0000 6.49864196777344 6.23448181152344 0.26416015625 0 0 0 0.0406 0.0000 0.0000 0.0000 274.41145324707 274.411270141602 0.00018310546875 0 0 0 0.0000 0.0000 0.0000 0.0000 77.0216827392578 77.0187072753906 0.0029754638671875 0.0010223388671875 0.0007171630859375 0 0.0000 0.0000 0.0000 0.0000 0x00400000 1.318603515625 0x10000000 0.12603759765625 0x7fffc000 0.25 0x00400140 0x7fff8000 0 0.002410888671875 632k 0.002410888671875 1259.83059692383 0.0000 
131072 278.891304016113 75.1651382446289 0.0006103515625 456935.5125 278.891304016113 278.886817932129 0.004486083984375 0.002532958984375 0 0 0.0000 0.0000 0.0000 0.0000 79.1657485961914 74.9381713867188 4.22757720947266 4.22562408447266 2.25467681884766 0 0.0534 0.0534 0.0285 0.0000 6.48674011230469 6.22953796386719 0.2572021484375 0 0 0 0.0397 0.0000 0.0000 0.0000 278.891304016113 278.891212463379 9.1552734375e-05 0 0 0 0.0000 0.0000 0.0000 0.0000 79.1657485961914 79.1492156982422 0.0165328979492188 0.0155563354492188 0.00931549072265625 0 0.0002 0.0002 0.0001 0.0000 0x00400000 0.6593017578125 0x10000000 0.063018798828125 0x7fffc000 0.125 0x00400140 0x7fff8000 0 0.0021820068359375 1144k 0.0021820068359375 1277.96742248535 0.0000 
262144 307.284023284912 81.9627227783203 0.00043487548828125 706602.3070 307.284023284912 307.281898498535 0.00212478637695312 0.00114822387695312 0 0 0.0000 0.0000 0.0000 0.0000 85.9630279541016 81.2364234924316 4.72660446166992 4.72562789916992 2.50466156005859 0 0.0550 0.0550 0.0291 0.0000 7.23339080810547 6.8339729309082 0.399417877197266 0.149417877197266 0.147983551025391 0 0.0552 0.0207 0.0205 0.0000 307.284023284912 307.283977508545 4.57763671875e-05 0 0 0 0.0000 0.0000 0.0000 0.0000 85.9630279541016 85.9443244934082 0.0187034606933594 0.0182151794433594 0.0105781555175781 0 0.0002 0.0002 0.0001 0.0000 0x00400000 0.32965087890625 0x10000000 0.0315093994140625 0x7fffc000 0.0625 0x00400140 0x7fff8000 0 0.00206756591796875 2168k 0.00206756591796875 1403.09750366211 0.0000 
524288 321.155963897705 87.1653785705566 0.000268936157226562 1194171.7589 321.155963897705 321.154697418213 0.0012664794921875 0.0007781982421875 0 0 0.0000 0.0000 0.0000 0.0000 91.1655311584473 86.1883563995361 4.97717475891113 4.97668647766113 2.62941932678223 0 0.0546 0.0546 0.0288 0.0000 7.60786056518555 6.60942649841309 0.998434066772461 0.873434066772461 0.68463134765625 0 0.1312 0.1148 0.0900 0.0000 321.155963897705 321.155941009521 2.288818359375e-05 0 0 0 0.0000 0.0000 0.0000 0.0000 91.1655311584473 91.1431751251221 0.0223560333251953 0.0221118927001953 0.0125331878662109 0 0.0002 0.0002 0.0001 0.0000 0x00400000 0.164825439453125 0x10000000 0.0157546997070312 0x7fffc000 0.03125 0x00400140 0x7fff8000 0 0.00202178955078125 4240k 0.00592994689941406 1467.97259521484 0.0000 
1048576 349.513374328613 93.9548435211182 0.000192642211914062 1814313.5446 349.513374328613 349.512761116028 0.000613212585449219 0.000369071960449219 0 0 0.0000 0.0000 0.0000 0.0000 97.9549198150635 92.4785137176514 5.47640609741211 5.47616195678711 2.8795280456543 0 0.0559 0.0559 0.0294 0.0000 8.35654735565186 7.11017990112305 1.24636745452881 1.18386745452881 0.839444160461426 0 0.1491 0.1417 0.1005 0.0000 349.513374328613 349.513362884521 1.1444091796875e-05 0 0 0 0.0000 0.0000 0.0000 0.0000 97.9549198150635 97.9306259155273 0.0242938995361328 0.0241718292236328 0.0135602951049805 0 0.0002 0.0002 0.0001 0.0000 0x00400000 0.0824127197265625 0x10000000 0.00787734985351562 0x7fffc000 0.015625 0x00400140 0x7fff8000 0 0.00198745727539062 8336k 0.105847358703613 1594.47217559814 0.0001 
2097152 354.231883525848 96.1672224998474 0.000152587890625 2321494.0719 354.231883525848 354.231566905975 0.000316619873046875 0.000194549560546875 0 0 0.0000 0.0000 0.0000 0.0000 100.16726064682 94.6920413970947 5.47521924972534 5.47509717941284 2.87824535369873 0 0.0547 0.0547 0.0287 0.0000 8.35378122329712 6.85800409317017 1.49577713012695 1.46452713012695 0.979765892028809 0 0.1791 0.1753 0.1173 0.0000 354.231883525848 354.231877803802 5.7220458984375e-06 0 0 0 0.0000 0.0000 0.0000 0.0000 100.16726064682 100.141018390656 0.0262422561645508 0.0261812210083008 0.0145635604858398 0 0.0003 0.0003 0.0001 0.0000 0x00400000 0.0412063598632812 0x10000000 0.00393867492675781 0x7fffc000 0.0078125 0x00400140 0x7fff8000 0 0.00197315216064453 16552k 0.0524053573608398 1617.51647472382 0.0000 
4194304 382.570330619812 102.95983171463 0.000140905380249023 2715086.7479 382.570330619812 382.570177316666 0.000153303146362305 9.22679901123047e-05 0 0 0.0000 0.0000 0.0000 0.0000 106.959850788116 100.984052658081 5.9757981300354 5.97573709487915 3.12930727005005 0 0.0559 0.0559 0.0293 0.0000 9.10525870323181 7.35987949371338 1.74537920951843 1.72975420951843 1.11233925819397 0 0.1917 0.1900 0.1222 0.0000 382.570330619812 382.570327758789 2.86102294921875e-06 0 0 0 0.0000 0.0000 0.0000 0.0000 106.959850788116 106.931657791138 0.0281929969787598 0.0281624794006348 0.0155541896820068 0 0.0003 0.0003 0.0001 0.0000 0x00400000 0.0206031799316406 0x10000000 0.00196933746337891 0x7fffc000 0.00390625 0x00400140 0x7fff8000 0 0.00196599960327148 32984k 0.0301222801208496 1744.32823371887 0.0000 
