#set_size_in_keys sim_num_insn sim_num_refs sim_elapsed_time sim_inst_rate il1.accesses il1.hits il1.misses il1.replacements il1.writebacks il1.invalidations il1.miss_rate il1.repl_rate il1.wb_rate il1.inv_rate dl1.accesses dl1.hits dl1.misses dl1.replacements dl1.writebacks dl1.invalidations dl1.miss_rate dl1.repl_rate dl1.wb_rate dl1.inv_rate dl2.accesses dl2.hits dl2.misses dl2.replacements dl2.writebacks dl2.invalidations dl2.miss_rate dl2.repl_rate dl2.wb_rate dl2.inv_rate itlb.accesses itlb.hits itlb.misses itlb.replacements itlb.writebacks itlb.invalidations itlb.miss_rate itlb.repl_rate itlb.wb_rate itlb.inv_rate dtlb.accesses dtlb.hits dtlb.misses dtlb.replacements dtlb.writebacks dtlb.invalidations dtlb.miss_rate dtlb.repl_rate dtlb.wb_rate dtlb.inv_rate ld_text_base ld_text_size ld_data_base ld_data_size ld_stack_base ld_stack_size ld_prog_entry ld_environ_base ld_target_big_endian mem.page_count mem.page_mem mem.ptab_misses mem.ptab_accesses mem.ptab_miss_rate
4096 210.087158203125 55.923095703125 0.000244140625 860517.0000 210.087158203125 209.935546875 0.151611328125 0.09130859375 0 0 0.0007 0.0004 0.0000 0.0000 59.942626953125 55.94482421875 3.997802734375 3.935302734375 2.308349609375 0 0.0667 0.0657 0.0385 0.0000 6.457763671875 5.965576171875 0.4921875 0.0625 0.0283203125 0 0.0762 0.0097 0.0044 0.0000 210.087158203125 210.084228515625 0.0029296875 0 0 0 0.0000 0.0000 0.0000 0.0000 59.942626953125 59.938720703125 0.00390625 0 0 0 0.0001 0.0000 0.0000 0.0000 0x00400000 21.98046875 0x10000000 2.0166015625 0x7fffc000 4 0x00400140 0x7fff8000 0 0.00927734375 152k 0.00927734375 1095.5234375 0.0000 
8192 213.834106445312 57.6356201171875 0.0001220703125 1751729.0000 213.834106445312 213.756225585938 0.077880859375 0.047607421875 0 0 0.0004 0.0002 0.0000 0.0000 61.6453857421875 57.7349853515625 3.910400390625 3.879150390625 2.23974609375 0 0.0634 0.0629 0.0363 0.0000 6.22802734375 5.8555908203125 0.3724365234375 0.0303955078125 0.015625 0 0.0598 0.0049 0.0025 0.0000 213.834106445312 213.832641601562 0.00146484375 0 0 0 0.0000 0.0000 0.0000 0.0000 61.6453857421875 61.6424560546875 0.0029296875 0 0 0 0.0000 0.0000 0.0000 0.0000 0x00400000 10.994140625 0x10000000 1.00830078125 0x7fffc000 2 0x00400140 0x7fff8000 0 0.005615234375 184k 0.005615234375 1046.29541015625 0.0000 
16384 241.726379394531 64.1953125 0.0001220703125 1980222.5000 241.726379394531 241.687927246094 0.0384521484375 0.02337646484375 0 0 0.0002 0.0001 0.0000 0.0000 68.2001953125 63.7327270507812 4.46746826171875 4.45184326171875 2.494140625 0 0.0655 0.0653 0.0366 0.0000 7.00006103515625 6.68994140625 0.31011962890625 0.01324462890625 0.0062255859375 0 0.0443 0.0019 0.0009 0.0000 241.726379394531 241.725646972656 0.000732421875 0 0 0 0.0000 0.0000 0.0000 0.0000 68.2001953125 68.19775390625 0.00244140625 0 0 0 0.0000 0.0000 0.0000 0.0000 0x00400000 5.498046875 0x10000000 0.504150390625 0x7fffc000 1 0x00400140 0x7fff8000 0 0.0037841796875 248k 0.0037841796875 1137.14587402344 0.0000 
32768 246.029052734375 66.2408142089844 6.103515625e-05 4030940.0000 246.029052734375 246.009460449219 0.01959228515625 0.01202392578125 0 0 0.0001 0.0000 0.0000 0.0000 70.2432556152344 65.8179321289062 4.42532348632812 4.41751098632812 2.46902465820312 0 0.0630 0.0629 0.0351 0.0000 6.9139404296875 6.633544921875 0.2803955078125 0.00653076171875 0.00311279296875 0 0.0406 0.0009 0.0005 0.0000 246.029052734375 246.028686523438 0.0003662109375 0 0 0 0.0000 0.0000 0.0000 0.0000 70.2432556152344 70.2410583496094 0.002197265625 0 0 0 0.0000 0.0000 0.0000 0.0000 0x00400000 2.74951171875 0x10000000 0.2520751953125 0x7fffc000 0.5 0x00400140 0x7fff8000 0 0.00286865234375 376k 0.00286865234375 1141.52563476562 0.0000 
65536 274.459533691406 73.0252685546875 7.62939453125e-05 3597396.0000 274.459533691406 274.450012207031 0.009521484375 0.005767822265625 0 0 0.0000 0.0000 0.0000 0.0000 77.0264892578125 72.0249786376953 5.00151062011719 4.99760437011719 2.73831176757812 0 0.0649 0.0649 0.0356 0.0000 7.74934387207031 7.48440551757812 0.264938354492188 0.003265380859375 0.001556396484375 0 0.0342 0.0004 0.0002 0.0000 274.459533691406 274.459350585938 0.00018310546875 0 0 0 0.0000 0.0000 0.0000 0.0000 77.0264892578125 77.0233764648438 0.00311279296875 0.00115966796875 0.00079345703125 0 0.0000 0.0000 0.0000 0.0000 0x00400000 1.374755859375 0x10000000 0.12603759765625 0x7fffc000 0.25 0x00400140 0x7fff8000 0 0.002410888671875 632k 0.002410888671875 1260.35256958008 0.0000 
131072 278.941856384277 75.1707534790039 7.62939453125e-05 3656146.7000 278.941856384277 278.936958312988 0.0048980712890625 0.0030059814453125 0 0 0.0000 0.0000 0.0000 0.0000 79.1713638305664 74.1958389282227 4.97552490234375 4.97357177734375 2.72453308105469 0 0.0628 0.0628 0.0344 0.0000 7.7049560546875 7.44734954833984 0.257606506347656 0.00164031982421875 0.0007781982421875 0 0.0334 0.0002 0.0001 0.0000 278.941856384277 278.941764831543 9.1552734375e-05 0 0 0 0.0000 0.0000 0.0000 0.0000 79.1713638305664 79.1528701782227 0.01849365234375 0.01751708984375 0.0102920532226562 0 0.0002 0.0002 0.0001 0.0000 0x00400000 0.6873779296875 0x10000000 0.063018798828125 0x7fffc000 0.125 0x00400140 0x7fff8000 0 0.0021820068359375 1144k 0.0021820068359375 1278.34088134766 0.0000 
262144 307.314178466797 81.9631958007812 8.7738037109375e-05 3502633.3913 307.314178466797 307.311813354492 0.0023651123046875 0.00147628784179688 0 0 0.0000 0.0000 0.0000 0.0000 85.9635009765625 80.412971496582 5.55052947998047 5.54955291748047 2.99777984619141 0 0.0646 0.0646 0.0349 0.0000 8.55067443847656 8.29695510864258 0.253719329833984 0.00081634521484375 0.00038909912109375 0 0.0297 0.0001 0.0000 0.0000 307.314178466797 307.31413269043 4.57763671875e-05 0 0 0 0.0000 0.0000 0.0000 0.0000 85.9635009765625 85.9428367614746 0.0206642150878906 0.0201759338378906 0.0115585327148438 0 0.0002 0.0002 0.0001 0.0000 0x00400000 0.34368896484375 0x10000000 0.0315093994140625 0x7fffc000 0.0625 0x00400140 0x7fff8000 0 0.00206756591796875 2168k 0.00206756591796875 1403.29907989502 0.0000 
524288 321.194887161255 87.1682720184326 8.7738037109375e-05 3660839.6739 321.194887161255 321.190134048462 0.00475311279296875 0.00431251525878906 0 0 0.0000 0.0000 0.0000 0.0000 91.1684246063232 85.3690376281738 5.79938697814941 5.79889869689941 3.11765670776367 0 0.0636 0.0636 0.0342 0.0000 8.92179679870605 8.65512657165527 0.266670227050781 0.0188751220703125 0.0132389068603516 0 0.0299 0.0021 0.0015 0.0000 321.194887161255 321.194864273071 2.288818359375e-05 0 0 0 0.0000 0.0000 0.0000 0.0000 91.1684246063232 91.1441078186035 0.0243167877197266 0.0240726470947266 0.0135135650634766 0 0.0003 0.0003 0.0001 0.0000 0x00400000 0.171844482421875 0x10000000 0.0157546997070312 0x7fffc000 0.03125 0x00400140 0x7fff8000 0 0.00202178955078125 4240k 0.0020904541015625 1468.17407989502 0.0000 
1048576 349.545023918152 93.9556875228882 9.5367431640625e-05 3665245.2300 349.545023918152 349.540946960449 0.00407695770263672 0.00385665893554688 0 0 0.0000 0.0000 0.0000 0.0000 97.9557638168335 91.5844688415527 6.37129497528076 6.37105083465576 3.38920974731445 0 0.0650 0.0650 0.0346 0.0000 9.76458168029785 6.97141170501709 2.79316997528076 2.66816997528076 1.766526222229 0 0.2861 0.2732 0.1809 0.0000 349.545023918152 349.54501247406 1.1444091796875e-05 0 0 0 0.0000 0.0000 0.0000 0.0000 97.9557638168335 97.9295091629028 0.0262546539306641 0.0261325836181641 0.0145406723022461 0 0.0003 0.0003 0.0001 0.0000 0x00400000 0.0859222412109375 0x10000000 0.00787734985351562 0x7fffc000 0.015625 0x00400140 0x7fff8000 0 0.00198745727539062 8336k 0.0962610244750977 1594.62046432495 0.0001 
2097152 354.266427516937 96.1691479682922 9.67979431152344e-05 3659854.9113 354.266427516937 354.262658596039 0.0037689208984375 0.00365877151489258 0 0 0.0000 0.0000 0.0000 0.0000 100.169186115265 93.8190889358521 6.35009717941284 6.34997510910034 3.3796968460083 0 0.0634 0.0634 0.0337 0.0000 9.73356294631958 6.50963020324707 3.22393274307251 3.16143274307251 1.87150907516479 0 0.3312 0.3248 0.1923 0.0000 354.266427516937 354.266421794891 5.7220458984375e-06 0 0 0 0.0000 0.0000 0.0000 0.0000 100.169186115265 100.140983104706 0.028203010559082 0.028141975402832 0.0155439376831055 0 0.0003 0.0003 0.0002 0.0000 0x00400000 0.0429611206054688 0x10000000 0.00393867492675781 0x7fffc000 0.0078125 0x00400140 0x7fff8000 0 0.00197315216064453 16552k 0.0505952835083008 1617.66850280762 0.0000 
4194304 382.606046199799 102.961532831192 0.000103473663330078 3697617.6728 382.606046199799 382.602452039719 0.00359416007995605 0.00353908538818359 0 0 0.0000 0.0000 0.0000 0.0000 106.961551904678 100.035187005997 6.92636489868164 6.92630386352539 3.65261316299438 0 0.0648 0.0648 0.0341 0.0000 10.582572221756 7.10786247253418 3.4747097492218 3.4434597492218 2.05544996261597 0 0.3283 0.3254 0.1942 0.0000 382.606046199799 382.606043338776 2.86102294921875e-06 0 0 0 0.0000 0.0000 0.0000 0.0000 106.961551904678 106.931398153305 0.030153751373291 0.030123233795166 0.0165345668792725 0 0.0003 0.0003 0.0002 0.0000 0x00400000 0.0214805603027344 0x10000000 0.00196933746337891 0x7fffc000 0.00390625 0x00400140 0x7fff8000 0 0.00196599960327148 32984k 0.0277256965637207 1744.47949886322 0.0000 
