#set_size_in_keys sim_num_insn sim_num_refs sim_elapsed_time sim_inst_rate il1.accesses il1.hits il1.misses il1.replacements il1.writebacks il1.invalidations il1.miss_rate il1.repl_rate il1.wb_rate il1.inv_rate dl1.accesses dl1.hits dl1.misses dl1.replacements dl1.writebacks dl1.invalidations dl1.miss_rate dl1.repl_rate dl1.wb_rate dl1.inv_rate dl2.accesses dl2.hits dl2.misses dl2.replacements dl2.writebacks dl2.invalidations dl2.miss_rate dl2.repl_rate dl2.wb_rate dl2.inv_rate itlb.accesses itlb.hits itlb.misses itlb.replacements itlb.writebacks itlb.invalidations itlb.miss_rate itlb.repl_rate itlb.wb_rate itlb.inv_rate dtlb.accesses dtlb.hits dtlb.misses dtlb.replacements dtlb.writebacks dtlb.invalidations dtlb.miss_rate dtlb.repl_rate dtlb.wb_rate dtlb.inv_rate ld_text_base ld_text_size ld_data_base ld_data_size ld_stack_base ld_stack_size ld_prog_entry ld_environ_base ld_target_big_endian mem.page_count mem.page_mem mem.ptab_misses mem.ptab_accesses mem.ptab_miss_rate
4096 183.819091796875 50.27978515625 0.000244140625 752923.0000 183.819091796875 183.70068359375 0.118408203125 0.06640625 0 0 0.0006 0.0004 0.0000 0.0000 54.29931640625 49.300048828125 4.999267578125 4.936767578125 2.595458984375 0 0.0921 0.0909 0.0478 0.0000 7.713134765625 7.25927734375 0.453857421875 0.0439453125 0.027587890625 0 0.0588 0.0057 0.0036 0.0000 183.819091796875 183.81640625 0.002685546875 0 0 0 0.0000 0.0000 0.0000 0.0000 54.29931640625 54.295654296875 0.003662109375 0 0 0 0.0001 0.0000 0.0000 0.0000 0x00400000 18.87109375 0x10000000 2.0126953125 0x7fffc000 4 0x00400140 0x7fff8000 0 0.00830078125 136k 0.00830078125 960.76708984375 0.0000 
8192 201.747192382812 56.2642822265625 0.0001220703125 1652713.0000 201.747192382812 201.681884765625 0.0653076171875 0.038330078125 0 0 0.0003 0.0002 0.0000 0.0000 60.2740478515625 54.8037109375 5.4703369140625 5.4390869140625 2.8076171875 0 0.0908 0.0902 0.0466 0.0000 8.34326171875 7.989501953125 0.353759765625 0.02490234375 0.0155029296875 0 0.0424 0.0030 0.0019 0.0000 201.747192382812 201.745849609375 0.0013427734375 0 0 0 0.0000 0.0000 0.0000 0.0000 60.2740478515625 60.271240234375 0.0028076171875 0 0 0 0.0000 0.0000 0.0000 0.0000 0x00400000 9.439453125 0x10000000 1.00634765625 0x7fffc000 2 0x00400140 0x7fff8000 0 0.005126953125 168k 0.005126953125 986.00634765625 0.0000 
16384 215.352416992188 58.54150390625 6.103515625e-05 3528334.0000 215.352416992188 215.322204589844 0.03021240234375 0.0177001953125 0 0 0.0001 0.0001 0.0000 0.0000 62.54638671875 57.1005249023438 5.44586181640625 5.43023681640625 2.79913330078125 0 0.0871 0.0868 0.0448 0.0000 8.27520751953125 7.97515869140625 0.300048828125 0.01275634765625 0.00823974609375 0 0.0363 0.0015 0.0010 0.0000 215.352416992188 215.351745605469 0.00067138671875 0 0 0 0.0000 0.0000 0.0000 0.0000 62.54638671875 62.5440063476562 0.00238037109375 0 0 0 0.0000 0.0000 0.0000 0.0000 0x00400000 4.720703125 0x10000000 0.503173828125 0x7fffc000 1 0x00400140 0x7fff8000 0 0.0035400390625 232k 0.0035400390625 1015.74304199219 0.0000 
32768 234.038024902344 64.8995666503906 6.103515625e-05 3834479.0000 234.038024902344 234.021636962891 0.016387939453125 0.0096435546875 0 0 0.0001 0.0000 0.0000 0.0000 68.9020080566406 62.95703125 5.94497680664062 5.93716430664062 3.038818359375 0 0.0863 0.0862 0.0441 0.0000 9.00018310546875 8.7239990234375 0.27618408203125 0.007080078125 0.004547119140625 0 0.0307 0.0008 0.0005 0.0000 234.038024902344 234.037689208984 0.000335693359375 0 0 0 0.0000 0.0000 0.0000 0.0000 68.9020080566406 68.8998413085938 0.002166748046875 0 0 0 0.0000 0.0000 0.0000 0.0000 0x00400000 2.36083984375 0x10000000 0.2515869140625 0x7fffc000 0.5 0x00400140 0x7fff8000 0 0.00274658203125 360k 0.00274658203125 1088.57934570312 0.0000 
65536 248.076171875 67.3700866699219 7.62939453125e-05 3251584.0000 248.076171875 248.068313598633 0.0078582763671875 0.004669189453125 0 0 0.0000 0.0000 0.0000 0.0000 71.3713073730469 65.3970184326172 5.97428894042969 5.97038269042969 3.04754638671875 0 0.0837 0.0837 0.0427 0.0000 9.02969360351562 8.76693725585938 0.26275634765625 0.0033721923828125 0.0021209716796875 0 0.0291 0.0004 0.0002 0.0000 248.076171875 248.07600402832 0.0001678466796875 0 0 0 0.0000 0.0000 0.0000 0.0000 71.3713073730469 71.3682556152344 0.0030517578125 0.0010986328125 0.000640869140625 0 0.0000 0.0000 0.0000 0.0000 0x00400000 1.180419921875 0x10000000 0.12579345703125 0x7fffc000 0.25 0x00400140 0x7fff8000 0 0.002349853515625 616k 0.002349853515625 1142.35891723633 0.0000 
131072 266.933906555176 73.8186264038086 7.62939453125e-05 3498756.1000 266.933906555176 266.929817199707 0.00408935546875 0.002410888671875 0 0 0.0000 0.0000 0.0000 0.0000 77.8192367553711 71.3286895751953 6.49054718017578 6.48859405517578 3.29928588867188 0 0.0834 0.0834 0.0424 0.0000 9.79392242431641 9.53739166259766 0.25653076171875 0.00176239013671875 0.00113677978515625 0 0.0262 0.0002 0.0001 0.0000 266.933906555176 266.933822631836 8.392333984375e-05 0 0 0 0.0000 0.0000 0.0000 0.0000 77.8192367553711 77.7868881225586 0.0323486328125 0.0313720703125 0.01641845703125 0 0.0004 0.0004 0.0002 0.0000 0x00400000 0.5902099609375 0x10000000 0.062896728515625 0x7fffc000 0.125 0x00400140 0x7fff8000 0 0.0021514892578125 1128k 0.0021514892578125 1227.02990722656 0.0000 
262144 280.947303771973 76.310661315918 8.0108642578125e-05 3507078.5714 280.947303771973 280.945343017578 0.00196075439453125 0.00116729736328125 0 0 0.0000 0.0000 0.0000 0.0000 80.3109664916992 73.7939949035645 6.51697158813477 6.51599502563477 3.30581665039062 0 0.0811 0.0811 0.0412 0.0000 9.82474899291992 9.57156372070312 0.253185272216797 0.000843048095703125 0.000530242919921875 0 0.0258 0.0001 0.0001 0.0000 280.947303771973 280.947261810303 4.1961669921875e-05 0 0 0 0.0000 0.0000 0.0000 0.0000 80.3109664916992 80.2776336669922 0.0333328247070312 0.0328445434570312 0.0174140930175781 0 0.0004 0.0004 0.0002 0.0000 0x00400000 0.29510498046875 0x10000000 0.0314483642578125 0x7fffc000 0.0625 0x00400140 0x7fff8000 0 0.00205230712890625 2152k 0.00205230712890625 1286.23905181885 0.0000 
524288 299.929096221924 82.7998027801514 8.392333984375e-05 3573846.0455 299.929096221924 299.928073883057 0.0010223388671875 0.00060272216796875 0 0 0.0000 0.0000 0.0000 0.0000 86.799955368042 79.7521286010742 7.04782676696777 7.04733848571777 3.56301307678223 0 0.0812 0.0812 0.0410 0.0000 10.6118621826172 10.2438716888428 0.367990493774414 0.120229721069336 0.0653190612792969 0 0.0347 0.0113 0.0062 0.0000 299.929096221924 299.929075241089 2.09808349609375e-05 0 0 0 0.0000 0.0000 0.0000 0.0000 86.799955368042 86.7627601623535 0.0371952056884766 0.0369510650634766 0.0194644927978516 0 0.0004 0.0004 0.0002 0.0000 0x00400000 0.147552490234375 0x10000000 0.0157241821289062 0x7fffc000 0.03125 0x00400140 0x7fff8000 0 0.00200271606445312 4200k 0.00200271606445312 1374.23024749756 0.0000 
1048576 313.951940536499 85.3073081970215 8.96453857421875e-05 3502153.9362 313.951940536499 313.95140838623 0.000532150268554688 0.000309944152832031 0 0 0.0000 0.0000 0.0000 0.0000 89.3073844909668 82.2318553924561 7.07552909851074 7.07528495788574 3.57016277313232 0 0.0792 0.0792 0.0400 0.0000 10.6462240219116 6.26980495452881 4.37641906738281 4.25141906738281 2.33561611175537 0 0.4111 0.3993 0.2194 0.0000 313.951940536499 313.951930046082 1.04904174804688e-05 0 0 0 0.0000 0.0000 0.0000 0.0000 89.3073844909668 89.2702131271362 0.0371713638305664 0.0370492935180664 0.0195102691650391 0 0.0004 0.0004 0.0002 0.0000 0x00400000 0.0737762451171875 0x10000000 0.00786209106445312 0x7fffc000 0.015625 0x00400140 0x7fff8000 0 0.001983642578125 8320k 0.100602149963379 1434.87950706482 0.0001 
2097152 333.00587272644 91.8147225379944 9.5367431640625e-05 3491819.6600 333.00587272644 333.005602359772 0.000270366668701172 0.000159263610839844 0 0 0.0000 0.0000 0.0000 0.0000 95.814760684967 88.2127442359924 7.60201644897461 7.60189437866211 3.82648706436157 0 0.0793 0.0793 0.0399 0.0000 11.4287738800049 6.17568254470825 5.25309133529663 5.19059133529663 2.69020748138428 0 0.4596 0.4542 0.2354 0.0000 333.00587272644 333.005867481232 5.24520874023438e-06 0 0 0 0.0000 0.0000 0.0000 0.0000 95.814760684967 95.7736949920654 0.0410656929016113 0.0410046577453613 0.0214877128601074 0 0.0004 0.0004 0.0002 0.0000 0x00400000 0.0368881225585938 0x10000000 0.00393104553222656 0x7fffc000 0.0078125 0x00400140 0x7fff8000 0 0.00197124481201172 16536k 0.0534968376159668 1523.88150024414 0.0000 
4194304 347.00865650177 94.3124861717224 0.000108242034912109 3205858.5815 347.00865650177 347.008523464203 0.000133037567138672 7.74860382080078e-05 0 0 0.0000 0.0000 0.0000 0.0000 98.3125052452087 90.682612657547 7.62989258766174 7.62983155250549 3.83336615562439 0 0.0776 0.0776 0.0390 0.0000 11.4633917808533 6.21050596237183 5.25288581848145 5.22163581848145 2.73116970062256 0 0.4582 0.4555 0.2383 0.0000 347.00865650177 347.008653879166 2.62260437011719e-06 0 0 0 0.0000 0.0000 0.0000 0.0000 98.3125052452087 98.2714469432831 0.0410583019256592 0.0410277843475342 0.0214989185333252 0 0.0004 0.0004 0.0002 0.0000 0x00400000 0.0184440612792969 0x10000000 0.00196552276611328 0x7fffc000 0.00390625 0x00400140 0x7fff8000 0 0.00196504592895508 32968k 0.0293381214141846 1584.77388048172 0.0000 
