#set_size_in_keys sim_num_insn sim_num_refs sim_elapsed_time sim_inst_rate sim_num_branches sim_IPB bpred_bimod.lookups bpred_bimod.updates bpred_bimod.addr_hits bpred_bimod.dir_hits bpred_bimod.misses bpred_bimod.jr_hits bpred_bimod.jr_seen bpred_bimod.jr_non_ras_hits.PP bpred_bimod.jr_non_ras_seen.PP bpred_bimod.bpred_addr_rate bpred_bimod.bpred_dir_rate bpred_bimod.bpred_jr_rate bpred_bimod.bpred_jr_non_ras_rate.PP bpred_bimod.retstack_pushes bpred_bimod.retstack_pops bpred_bimod.used_ras.PP bpred_bimod.ras_hits.PP bpred_bimod.ras_rate.PP
4096 105.247314453125 41.910888671875 0.000244140625 431093.0000 3.2734375 32.1519 3.2734375 3.2734375 3.22314453125 3.2470703125 0.0263671875 0.014404296875 0.014404296875 0 0 0.9846 0.9919 1.0000 <error: 0.014892578125 0.014404296875 0.014404296875 0.014404296875 1.0000 
8192 103.640991210938 40.9608154296875 0.0001220703125 849027.0000 3.1416015625 32.9899 3.1416015625 3.1416015625 3.11572265625 3.1279296875 0.013671875 0.0081787109375 0.00830078125 0 0 0.9918 0.9956 0.9853 <error: 0.008544921875 0.00830078125 0.00830078125 0.0081787109375 0.9853 
16384 102.820617675781 40.4804077148438 6.103515625e-05 1684613.0000 3.07080078125 33.4833 3.07080078125 3.07080078125 3.05804443359375 3.06427001953125 0.00653076171875 0.00408935546875 0.004150390625 0 0 0.9958 0.9979 0.9853 <error: 0.0042724609375 0.004150390625 0.004150390625 0.00408935546875 0.9853 
32768 102.410339355469 40.2402038574219 3.0517578125e-05 3355782.0000 3.035400390625 33.7387 3.035400390625 3.035400390625 3.02899169921875 3.03213500976562 0.003265380859375 0.002044677734375 0.0020751953125 0 0 0.9979 0.9989 0.9853 <error: 0.00213623046875 0.0020751953125 0.0020751953125 0.002044677734375 0.9853 
65536 102.205169677734 40.1201019287109 1.52587890625e-05 6698118.0000 3.0177001953125 33.8686 3.0177001953125 3.0177001953125 3.01449584960938 3.01606750488281 0.0016326904296875 0.0010223388671875 0.00103759765625 0 0 0.9989 0.9995 0.9853 <error: 0.001068115234375 0.00103759765625 0.00103759765625 0.0010223388671875 0.9853 
131072 102.102592468262 40.0600509643555 1.52587890625e-05 6691395.5000 3.00885009765625 33.9341 3.00885009765625 3.00885009765625 3.00724792480469 3.00804138183594 0.0008087158203125 0.00051116943359375 0.000518798828125 0 0 0.9995 0.9997 0.9853 <error: 0.0005340576171875 0.000518798828125 0.000518798828125 0.00051116943359375 0.9853 
262144 102.051296234131 40.0300254821777 1.52587890625e-05 6688033.7500 3.00442504882812 33.9670 3.00442504882812 3.00442504882812 3.00362396240234 3.00402069091797 0.00040435791015625 0.000255584716796875 0.0002593994140625 0 0 0.9997 0.9999 0.9853 <error: 0.00026702880859375 0.0002593994140625 0.0002593994140625 0.000255584716796875 0.9853 
524288 102.025648117065 40.0150127410889 1.52587890625e-05 6686352.8750 3.00221252441406 33.9835 3.00221252441406 3.00221252441406 3.00181198120117 3.00201034545898 0.000202178955078125 0.000127792358398438 0.00012969970703125 0 0 0.9999 0.9999 0.9853 <error: 0.000133514404296875 0.00012969970703125 0.00012969970703125 0.000127792358398438 0.9853 
1048576 102.024722099304 40.016339302063 1.52587890625e-05 6686292.1875 3.00186252593994 33.9871 3.00186252593994 3.00186252593994 3.0016393661499 3.00174808502197 0.00011444091796875 6.67572021484375e-05 6.77108764648438e-05 0 9.5367431640625e-07 0.9999 1.0000 0.9859 0.0000 6.866455078125e-05 6.67572021484375e-05 6.67572021484375e-05 6.67572021484375e-05 1.0000 
2097152 102.016759395599 40.0110993385315 1.62124633789062e-05 6292489.7353 3.00129890441895 33.9909 3.00129890441895 3.00129890441895 3.00118732452393 3.00124168395996 5.7220458984375e-05 3.33786010742188e-05 3.38554382324219e-05 0 4.76837158203125e-07 1.0000 1.0000 0.9859 0.0000 3.4332275390625e-05 3.33786010742188e-05 3.33786010742188e-05 3.33786010742188e-05 1.0000 
4194304 102.012776136398 40.0084793567657 1.52587890625e-05 6685509.2969 3.00101637840271 33.9927 3.00101637840271 3.00101637840271 3.0009605884552 3.00098776817322 2.86102294921875e-05 1.66893005371094e-05 1.69277191162109e-05 0 2.38418579101562e-07 1.0000 1.0000 0.9859 0.0000 1.71661376953125e-05 1.66893005371094e-05 1.66893005371094e-05 1.66893005371094e-05 1.0000 
