#set_size_in_keys sim_num_insn sim_num_refs sim_elapsed_time sim_inst_rate il1.accesses il1.hits il1.misses il1.replacements il1.writebacks il1.invalidations il1.miss_rate il1.repl_rate il1.wb_rate il1.inv_rate dl1.accesses dl1.hits dl1.misses dl1.replacements dl1.writebacks dl1.invalidations dl1.miss_rate dl1.repl_rate dl1.wb_rate dl1.inv_rate dl2.accesses dl2.hits dl2.misses dl2.replacements dl2.writebacks dl2.invalidations dl2.miss_rate dl2.repl_rate dl2.wb_rate dl2.inv_rate itlb.accesses itlb.hits itlb.misses itlb.replacements itlb.writebacks itlb.invalidations itlb.miss_rate itlb.repl_rate itlb.wb_rate itlb.inv_rate dtlb.accesses dtlb.hits dtlb.misses dtlb.replacements dtlb.writebacks dtlb.invalidations dtlb.miss_rate dtlb.repl_rate dtlb.wb_rate dtlb.inv_rate ld_text_base ld_text_size ld_data_base ld_data_size ld_stack_base ld_stack_size ld_prog_entry ld_environ_base ld_target_big_endian mem.page_count mem.page_mem mem.ptab_misses mem.ptab_accesses mem.ptab_miss_rate
4096 105.247314453125 41.910888671875 0.00244140625 43109.3000 105.247314453125 105.1572265625 0.090087890625 0.027587890625 0 0 0.0009 0.0003 0.0000 0.0000 45.930419921875 41.9697265625 3.960693359375 3.898193359375 2.443115234375 0 0.0862 0.0849 0.0532 0.0000 6.493896484375 6.045166015625 0.44873046875 0 0 0 0.0691 0.0000 0.0000 0.0000 105.247314453125 105.244873046875 0.00244140625 0 0 0 0.0000 0.0000 0.0000 0.0000 45.930419921875 45.9267578125 0.003662109375 0 0 0 0.0001 0.0000 0.0000 0.0000 0x00400000 18.43359375 0x10000000 2.0126953125 0x7fffc000 4 0x00400140 0x7fff8000 0 0.00830078125 136k 0.00830078125 627.1171875 0.0000 
8192 103.640991210938 40.9608154296875 0.001953125 53064.1875 103.640991210938 103.597290039062 0.043701171875 0.012451171875 0 0 0.0004 0.0001 0.0000 0.0000 44.9705810546875 41.0972900390625 3.873291015625 3.842041015625 2.3587646484375 0 0.0861 0.0854 0.0525 0.0000 6.2757568359375 5.927734375 0.3480224609375 0 0 0 0.0555 0.0000 0.0000 0.0000 103.640991210938 103.639770507812 0.001220703125 0 0 0 0.0000 0.0000 0.0000 0.0000 44.9705810546875 44.9677734375 0.0028076171875 0 0 0 0.0001 0.0000 0.0000 0.0000 0x00400000 9.220703125 0x10000000 1.00634765625 0x7fffc000 2 0x00400140 0x7fff8000 0 0.005126953125 168k 0.005126953125 561.662109375 0.0000 
16384 102.820617675781 40.4804077148438 0.0015869140625 64792.8077 102.820617675781 102.798889160156 0.021728515625 0.006103515625 0 0 0.0002 0.0001 0.0000 0.0000 44.4852905273438 40.6666259765625 3.81866455078125 3.80303955078125 2.310302734375 0 0.0858 0.0855 0.0519 0.0000 6.15069580078125 5.85186767578125 0.298828125 0 0 0 0.0486 0.0000 0.0000 0.0000 102.820617675781 102.820007324219 0.0006103515625 0 0 0 0.0000 0.0000 0.0000 0.0000 44.4852905273438 44.48291015625 0.00238037109375 0 0 0 0.0001 0.0000 0.0000 0.0000 0x00400000 4.611328125 0x10000000 0.503173828125 0x7fffc000 1 0x00400140 0x7fff8000 0 0.0035400390625 232k 0.0035400390625 528.83740234375 0.0000 
32768 102.410339355469 40.2402038574219 0.00146484375 69912.1250 102.410339355469 102.399383544922 0.010955810546875 0.003143310546875 0 0 0.0001 0.0000 0.0000 0.0000 44.2426452636719 40.4459838867188 3.79666137695312 3.78884887695312 2.29217529296875 0 0.0858 0.0856 0.0518 0.0000 6.09979248046875 5.82525634765625 0.2745361328125 0 0 0 0.0450 0.0000 0.0000 0.0000 102.410339355469 102.410034179688 0.00030517578125 0 0 0 0.0000 0.0000 0.0000 0.0000 44.2426452636719 44.240478515625 0.002166748046875 0 0 0 0.0000 0.0000 0.0000 0.0000 0x00400000 2.30615234375 0x10000000 0.2515869140625 0x7fffc000 0.5 0x00400140 0x7fff8000 0 0.00274658203125 360k 0.00274658203125 512.421752929688 0.0000 
65536 102.205169677734 40.1201019287109 0.001373291015625 74423.5333 102.205169677734 102.199691772461 0.0054779052734375 0.0015716552734375 0 0 0.0001 0.0000 0.0000 0.0000 44.1213226318359 40.3323822021484 3.7889404296875 3.7850341796875 2.28660583496094 0 0.0859 0.0858 0.0518 0.0000 6.08102416992188 5.81875610351562 0.26226806640625 0 0 0 0.0431 0.0000 0.0000 0.0000 102.205169677734 102.205017089844 0.000152587890625 0 0 0 0.0000 0.0000 0.0000 0.0000 44.1213226318359 44.1187896728516 0.002532958984375 0.000579833984375 0.0004119873046875 0 0.0001 0.0000 0.0000 0.0000 0x00400000 1.153076171875 0x10000000 0.12579345703125 0x7fffc000 0.25 0x00400140 0x7fff8000 0 0.002349853515625 616k 0.002349853515625 504.210876464844 0.0000 
131072 102.102592468262 40.0600509643555 0.00124359130859375 82103.0123 102.102592468262 102.09986114502 0.0027313232421875 0.0007781982421875 0 0 0.0000 0.0000 0.0000 0.0000 44.060661315918 40.2823181152344 3.77834320068359 3.77639007568359 2.27713775634766 0 0.0858 0.0857 0.0517 0.0000 6.05821228027344 5.80208587646484 0.256126403808594 0 0 0 0.0423 0.0000 0.0000 0.0000 102.102592468262 102.102516174316 7.62939453125e-05 0 0 0 0.0000 0.0000 0.0000 0.0000 44.060661315918 43.9722747802734 0.0883865356445312 0.0874099731445312 0.0787277221679688 0 0.0020 0.0020 0.0018 0.0000 0x00400000 0.5765380859375 0x10000000 0.062896728515625 0x7fffc000 0.125 0x00400140 0x7fff8000 0 0.0021514892578125 1128k 0.0021514892578125 500.10546875 0.0000 
262144 102.051296234131 40.0300254821777 0.00106048583984375 96230.7014 102.051296234131 102.04993057251 0.00136566162109375 0.00038909912109375 0 0 0.0000 0.0000 0.0000 0.0000 44.030330657959 40.2560119628906 3.77431869506836 3.77334213256836 2.27370834350586 0 0.0857 0.0857 0.0516 0.0000 6.04939270019531 5.79632949829102 0.253063201904297 0 0 0 0.0418 0.0000 0.0000 0.0000 102.051296234131 102.051258087158 3.814697265625e-05 0 0 0 0.0000 0.0000 0.0000 0.0000 44.030330657959 42.0137710571289 2.01655960083008 2.01607131958008 2.00489807128906 0 0.0458 0.0458 0.0455 0.0000 0x00400000 0.28826904296875 0x10000000 0.0314483642578125 0x7fffc000 0.0625 0x00400140 0x7fff8000 0 0.00205230712890625 2152k 0.00205230712890625 498.052734375 0.0000 
524288 102.025648117065 40.0150127410889 0.000713348388671875 143023.5909 102.025648117065 102.024965286255 0.000682830810546875 0.000194549560546875 0 0 0.0000 0.0000 0.0000 0.0000 44.0151653289795 40.2440032958984 3.77116203308105 3.77067375183105 2.2708568572998 0 0.0857 0.0857 0.0516 0.0000 6.04270172119141 5.78087425231934 0.26182746887207 0.0118274688720703 0.0111484527587891 0 0.0433 0.0020 0.0018 0.0000 102.025648117065 102.025629043579 1.9073486328125e-05 0 0 0 0.0000 0.0000 0.0000 0.0000 44.0151653289795 41.4827823638916 2.53238296508789 2.53213882446289 2.5206241607666 0 0.0575 0.0575 0.0573 0.0000 0x00400000 0.144134521484375 0x10000000 0.0157241821289062 0x7fffc000 0.03125 0x00400140 0x7fff8000 0 0.00200271606445312 4200k 0.00200271606445312 497.0263671875 0.0000 
1048576 102.024722099304 40.016339302063 0.000698089599609375 146148.4631 102.024722099304 102.024317741394 0.00040435791015625 0.00016021728515625 0 0 0.0000 0.0000 0.0000 0.0000 44.0164155960083 40.2426300048828 3.77378559112549 3.77354145050049 2.2732629776001 0 0.0857 0.0857 0.0516 0.0000 6.04745292663574 3.48843479156494 2.5590181350708 2.4340181350708 1.06465721130371 0 0.4232 0.4025 0.1761 0.0000 102.024722099304 102.024712562561 9.5367431640625e-06 0 0 0 0.0000 0.0000 0.0000 0.0000 44.0164155960083 40.9797401428223 3.03667545318604 3.03655338287354 3.02490615844727 0 0.0690 0.0690 0.0687 0.0000 0x00400000 0.0720672607421875 0x10000000 0.00786209106445312 0x7fffc000 0.015625 0x00400140 0x7fff8000 0 0.001983642578125 8320k 0.0195693969726562 496.578441619873 0.0000 
2097152 102.016759395599 40.0110993385315 0.000209331512451172 487345.4465 102.016759395599 102.016557216644 0.000202178955078125 8.0108642578125e-05 0 0 0.0000 0.0000 0.0000 0.0000 44.0111374855042 40.2378325462341 3.77330493927002 3.77318286895752 2.27304363250732 0 0.0857 0.0857 0.0516 0.0000 6.04655075073242 3.43597745895386 2.61057329177856 2.54807329177856 1.09523582458496 0 0.4317 0.4214 0.1811 0.0000 102.016759395599 102.016754627228 4.76837158203125e-06 0 0 0 0.0000 0.0000 0.0000 0.0000 44.0111374855042 40.6660180091858 3.34511947631836 3.34505844116211 3.33337259292603 0 0.0760 0.0760 0.0757 0.0000 0x00400000 0.0360336303710938 0x10000000 0.00393104553222656 0x7fffc000 0.0078125 0x00400140 0x7fff8000 0 0.00197124481201172 16536k 0.00978755950927734 496.312673568726 0.0000 
4194304 102.012776136398 40.0084793567657 0.00012660026550293 805786.4313 102.012776136398 102.012675046921 0.000101089477539062 4.00543212890625e-05 0 0 0.0000 0.0000 0.0000 0.0000 44.0084984302521 40.2354245185852 3.77307391166687 3.77301287651062 2.27294325828552 0 0.0857 0.0857 0.0516 0.0000 6.04611825942993 3.42373442649841 2.62238383293152 2.59113383293152 1.11051535606384 0 0.4337 0.4286 0.1837 0.0000 102.012776136398 102.012773752213 2.38418579101562e-06 0 0 0 0.0000 0.0000 0.0000 0.0000 44.0084984302521 40.4591679573059 3.54933047294617 3.54929995536804 3.53759574890137 0 0.0807 0.0807 0.0804 0.0000 0x00400000 0.0180168151855469 0x10000000 0.00196552276611328 0x7fffc000 0.00390625 0x00400140 0x7fff8000 0 0.00196504592895508 32968k 0.00587320327758789 496.179781913757 0.0000 
