#set_size_in_keys sim_num_insn sim_num_refs sim_elapsed_time sim_inst_rate il1.accesses il1.hits il1.misses il1.replacements il1.writebacks il1.invalidations il1.miss_rate il1.repl_rate il1.wb_rate il1.inv_rate dl1.accesses dl1.hits dl1.misses dl1.replacements dl1.writebacks dl1.invalidations dl1.miss_rate dl1.repl_rate dl1.wb_rate dl1.inv_rate dl2.accesses dl2.hits dl2.misses dl2.replacements dl2.writebacks dl2.invalidations dl2.miss_rate dl2.repl_rate dl2.wb_rate dl2.inv_rate itlb.accesses itlb.hits itlb.misses itlb.replacements itlb.writebacks itlb.invalidations itlb.miss_rate itlb.repl_rate itlb.wb_rate itlb.inv_rate dtlb.accesses dtlb.hits dtlb.misses dtlb.replacements dtlb.writebacks dtlb.invalidations dtlb.miss_rate dtlb.repl_rate dtlb.wb_rate dtlb.inv_rate ld_text_base ld_text_size ld_data_base ld_data_size ld_stack_base ld_stack_size ld_prog_entry ld_environ_base ld_target_big_endian mem.page_count mem.page_mem mem.ptab_misses mem.ptab_accesses mem.ptab_miss_rate
4096 105.247314453125 41.910888671875 0.000244140625 431093.0000 105.247314453125 105.14111328125 0.106201171875 0.052490234375 0 0 0.0010 0.0005 0.0000 0.0000 45.930419921875 41.1123046875 4.818115234375 4.755615234375 3.3125 0 0.1049 0.1035 0.0721 0.0000 8.23681640625 7.787109375 0.44970703125 0.03125 0.021484375 0 0.0546 0.0038 0.0026 0.0000 105.247314453125 105.244873046875 0.00244140625 0 0 0 0.0000 0.0000 0.0000 0.0000 45.930419921875 45.9267578125 0.003662109375 0 0 0 0.0001 0.0000 0.0000 0.0000 0x00400000 18.43359375 0x10000000 2.0126953125 0x7fffc000 4 0x00400140 0x7fff8000 0 0.00830078125 136k 0.00830078125 627.1171875 0.0000 
8192 103.640991210938 40.9608154296875 0.0001220703125 849027.0000 103.640991210938 103.586791992188 0.05419921875 0.029296875 0 0 0.0005 0.0003 0.0000 0.0000 44.9705810546875 40.0040283203125 4.966552734375 4.935302734375 3.41064453125 0 0.1104 0.1097 0.0758 0.0000 8.431396484375 8.0819091796875 0.3494873046875 0.0167236328125 0.01123046875 0 0.0415 0.0020 0.0013 0.0000 103.640991210938 103.639770507812 0.001220703125 0 0 0 0.0000 0.0000 0.0000 0.0000 44.9705810546875 44.9677734375 0.0028076171875 0 0 0 0.0001 0.0000 0.0000 0.0000 0x00400000 9.220703125 0x10000000 1.00634765625 0x7fffc000 2 0x00400140 0x7fff8000 0 0.005126953125 168k 0.005126953125 561.662109375 0.0000 
16384 102.820617675781 40.4804077148438 6.103515625e-05 1684613.0000 102.820617675781 102.793884277344 0.0267333984375 0.01422119140625 0 0 0.0003 0.0001 0.0000 0.0000 44.4852905273438 39.5217895507812 4.9635009765625 4.9478759765625 3.40899658203125 0 0.1116 0.1112 0.0766 0.0000 8.39923095703125 8.09954833984375 0.2996826171875 0.00970458984375 0.00689697265625 0 0.0357 0.0012 0.0008 0.0000 102.820617675781 102.820007324219 0.0006103515625 0 0 0 0.0000 0.0000 0.0000 0.0000 44.4852905273438 44.48291015625 0.00238037109375 0 0 0 0.0001 0.0000 0.0000 0.0000 0x00400000 4.611328125 0x10000000 0.503173828125 0x7fffc000 1 0x00400140 0x7fff8000 0 0.0035400390625 232k 0.0035400390625 528.83740234375 0.0000 
32768 102.410339355469 40.2402038574219 6.103515625e-05 1677891.0000 102.410339355469 102.396820068359 0.013519287109375 0.00726318359375 0 0 0.0001 0.0001 0.0000 0.0000 44.2426452636719 39.2006225585938 5.04202270507812 5.03421020507812 3.49249267578125 0 0.1140 0.1138 0.0789 0.0000 8.54803466796875 8.27301025390625 0.2750244140625 0.0050048828125 0.003509521484375 0 0.0322 0.0006 0.0004 0.0000 102.410339355469 102.410034179688 0.00030517578125 0 0 0 0.0000 0.0000 0.0000 0.0000 44.2426452636719 44.240478515625 0.002166748046875 0 0 0 0.0000 0.0000 0.0000 0.0000 0x00400000 2.30615234375 0x10000000 0.2515869140625 0x7fffc000 0.5 0x00400140 0x7fff8000 0 0.00274658203125 360k 0.00274658203125 512.421752929688 0.0000 
65536 102.205169677734 40.1201019287109 3.0517578125e-05 3349059.0000 102.205169677734 102.19841003418 0.0067596435546875 0.003631591796875 0 0 0.0001 0.0000 0.0000 0.0000 44.1213226318359 39.0630493164062 5.05827331542969 5.05436706542969 3.51165771484375 0 0.1146 0.1146 0.0796 0.0000 8.57669067382812 8.31414794921875 0.262542724609375 0.002532958984375 0.0017547607421875 0 0.0306 0.0003 0.0002 0.0000 102.205169677734 102.205017089844 0.000152587890625 0 0 0 0.0000 0.0000 0.0000 0.0000 44.1213226318359 44.1187896728516 0.002532958984375 0.000579833984375 0.0004119873046875 0 0.0001 0.0000 0.0000 0.0000 0x00400000 1.153076171875 0x10000000 0.12579345703125 0x7fffc000 0.25 0x00400140 0x7fff8000 0 0.002349853515625 616k 0.002349853515625 504.210876464844 0.0000 
131072 102.102592468262 40.0600509643555 3.0517578125e-05 3345697.7500 102.102592468262 102.099212646484 0.00337982177734375 0.0018157958984375 0 0 0.0000 0.0000 0.0000 0.0000 44.060661315918 38.7369613647461 5.32369995117188 5.32174682617188 3.77777862548828 0 0.1208 0.1208 0.0857 0.0000 9.1048583984375 8.84860992431641 0.256248474121094 0.001251220703125 0.00087738037109375 0 0.0281 0.0001 0.0001 0.0000 102.102592468262 102.102516174316 7.62939453125e-05 0 0 0 0.0000 0.0000 0.0000 0.0000 44.060661315918 43.9722747802734 0.0883865356445312 0.0874099731445312 0.0787277221679688 0 0.0020 0.0020 0.0018 0.0000 0x00400000 0.5765380859375 0x10000000 0.062896728515625 0x7fffc000 0.125 0x00400140 0x7fff8000 0 0.0021514892578125 1128k 0.0021514892578125 500.10546875 0.0000 
262144 102.051296234131 40.0300254821777 4.1961669921875e-05 2432012.2727 102.051296234131 102.049606323242 0.00168991088867188 0.00090789794921875 0 0 0.0000 0.0000 0.0000 0.0000 44.030330657959 38.4975967407227 5.53273391723633 5.53175735473633 3.98761367797852 0 0.1257 0.1256 0.0906 0.0000 9.52203750610352 9.16442489624023 0.357612609863281 0.112098693847656 0.0701065063476562 0 0.0376 0.0118 0.0074 0.0000 102.051296234131 102.051258087158 3.814697265625e-05 0 0 0 0.0000 0.0000 0.0000 0.0000 44.030330657959 42.0137710571289 2.01655960083008 2.01607131958008 2.00489807128906 0 0.0458 0.0458 0.0455 0.0000 0x00400000 0.28826904296875 0x10000000 0.0314483642578125 0x7fffc000 0.0625 0x00400140 0x7fff8000 0 0.00205230712890625 2152k 0.00205230712890625 498.052734375 0.0000 
524288 102.025648117065 40.0150127410889 3.4332275390625e-05 2971712.3889 102.025648117065 102.024803161621 0.000844955444335938 0.000453948974609375 0 0 0.0000 0.0000 0.0000 0.0000 44.0151653289795 38.34228515625 5.67288017272949 5.67239189147949 4.12953758239746 0 0.1289 0.1289 0.0938 0.0000 9.80326271057129 8.14375305175781 1.65950965881348 1.53450965881348 1.01206016540527 0 0.1693 0.1565 0.1032 0.0000 102.025648117065 102.025629043579 1.9073486328125e-05 0 0 0 0.0000 0.0000 0.0000 0.0000 44.0151653289795 41.4827823638916 2.53238296508789 2.53213882446289 2.5206241607666 0 0.0575 0.0575 0.0573 0.0000 0x00400000 0.144134521484375 0x10000000 0.0157241821289062 0x7fffc000 0.03125 0x00400140 0x7fff8000 0 0.00200271606445312 4200k 0.00200271606445312 497.0263671875 0.0000 
1048576 102.024722099304 40.016339302063 3.52859497070312e-05 2891369.5946 102.024722099304 102.024250030518 0.000472068786621094 0.000250816345214844 0 0 0.0000 0.0000 0.0000 0.0000 44.0164155960083 38.6289110183716 5.38750457763672 5.38726043701172 3.84327983856201 0 0.1224 0.1224 0.0873 0.0000 9.23125648498535 6.63028335571289 2.60097312927246 2.53847312927246 1.08155155181885 0 0.2818 0.2750 0.1172 0.0000 102.024722099304 102.024712562561 9.5367431640625e-06 0 0 0 0.0000 0.0000 0.0000 0.0000 44.0164155960083 40.9797401428223 3.03667545318604 3.03655338287354 3.02490615844727 0 0.0690 0.0690 0.0687 0.0000 0x00400000 0.0720672607421875 0x10000000 0.00786209106445312 0x7fffc000 0.015625 0x00400140 0x7fff8000 0 0.001983642578125 8320k 0.0195693969726562 496.578441619873 0.0000 
2097152 102.016759395599 40.0110993385315 3.4332275390625e-05 2971453.4861 102.016759395599 102.016523361206 0.000236034393310547 0.000125408172607422 0 0 0.0000 0.0000 0.0000 0.0000 44.0111374855042 38.8320450782776 5.17909240722656 5.17897033691406 3.63595247268677 0 0.1177 0.1177 0.0826 0.0000 8.81528091430664 6.16610240936279 2.64917850494385 2.61792850494385 1.12436676025391 0 0.3005 0.2970 0.1275 0.0000 102.016759395599 102.016754627228 4.76837158203125e-06 0 0 0 0.0000 0.0000 0.0000 0.0000 44.0111374855042 40.6660180091858 3.34511947631836 3.34505844116211 3.33337259292603 0 0.0760 0.0760 0.0757 0.0000 0x00400000 0.0360336303710938 0x10000000 0.00393104553222656 0x7fffc000 0.0078125 0x00400140 0x7fff8000 0 0.00197124481201172 16536k 0.00978755950927734 496.312673568726 0.0000 
4194304 102.012776136398 40.0084793567657 3.45706939697266e-05 2950845.4828 102.012776136398 102.012658119202 0.000118017196655273 6.27040863037109e-05 0 0 0.0000 0.0000 0.0000 0.0000 44.0084984302521 38.9257748126984 5.08272361755371 5.08266258239746 3.53965830802917 0 0.1155 0.1155 0.0804 0.0000 8.62249994277954 5.95343828201294 2.6690616607666 2.6534366607666 1.15506482124329 0 0.3095 0.3077 0.1340 0.0000 102.012776136398 102.012773752213 2.38418579101562e-06 0 0 0 0.0000 0.0000 0.0000 0.0000 44.0084984302521 40.4591679573059 3.54933047294617 3.54929995536804 3.53759574890137 0 0.0807 0.0807 0.0804 0.0000 0x00400000 0.0180168151855469 0x10000000 0.00196552276611328 0x7fffc000 0.00390625 0x00400140 0x7fff8000 0 0.00196504592895508 32968k 0.00587320327758789 496.179781913757 0.0000 
