#set_size_in_keys sim_num_insn sim_num_refs sim_elapsed_time sim_inst_rate sim_num_branches sim_IPB bpred_2lev.lookups bpred_2lev.updates bpred_2lev.addr_hits bpred_2lev.dir_hits bpred_2lev.misses bpred_2lev.jr_hits bpred_2lev.jr_seen bpred_2lev.jr_non_ras_hits.PP bpred_2lev.jr_non_ras_seen.PP bpred_2lev.bpred_addr_rate bpred_2lev.bpred_dir_rate bpred_2lev.bpred_jr_rate bpred_2lev.bpred_jr_non_ras_rate.PP bpred_2lev.retstack_pushes bpred_2lev.retstack_pops bpred_2lev.used_ras.PP bpred_2lev.ras_hits.PP bpred_2lev.ras_rate.PP
4096 105.247314453125 41.910888671875 0.000244140625 431093.0000 3.2734375 32.1519 3.2734375 3.2734375 3.210205078125 3.234375 0.0390625 0.014404296875 0.014404296875 0 0 0.9807 0.9881 1.0000 <error: 0.014892578125 0.014404296875 0.014404296875 0.014404296875 1.0000 
8192 103.640991210938 40.9608154296875 0.0001220703125 849027.0000 3.1416015625 32.9899 3.1416015625 3.1416015625 3.1092529296875 3.1214599609375 0.0201416015625 0.0081787109375 0.00830078125 0 0 0.9897 0.9936 0.9853 <error: 0.008544921875 0.00830078125 0.00830078125 0.0081787109375 0.9853 
16384 102.820617675781 40.4804077148438 6.103515625e-05 1684613.0000 3.07080078125 33.4833 3.07080078125 3.07080078125 3.05438232421875 3.0606689453125 0.0101318359375 0.00408935546875 0.004150390625 0 0 0.9947 0.9967 0.9853 <error: 0.0042724609375 0.004150390625 0.004150390625 0.00408935546875 0.9853 
32768 102.410339355469 40.2402038574219 3.0517578125e-05 3355782.0000 3.035400390625 33.7387 3.035400390625 3.035400390625 3.02728271484375 3.0303955078125 0.0050048828125 0.002044677734375 0.0020751953125 0 0 0.9973 0.9984 0.9853 <error: 0.00213623046875 0.0020751953125 0.0020751953125 0.002044677734375 0.9853 
65536 102.205169677734 40.1201019287109 1.52587890625e-05 6698118.0000 3.0177001953125 33.8686 3.0177001953125 3.0177001953125 3.01364135742188 3.01519775390625 0.00250244140625 0.0010223388671875 0.00103759765625 0 0 0.9987 0.9992 0.9853 <error: 0.001068115234375 0.00103759765625 0.00103759765625 0.0010223388671875 0.9853 
131072 102.102592468262 40.0600509643555 7.62939453125e-06 13382791.0000 3.00885009765625 33.9341 3.00885009765625 3.00885009765625 3.00682067871094 3.00760650634766 0.00124359130859375 0.00051116943359375 0.000518798828125 0 0 0.9993 0.9996 0.9853 <error: 0.0005340576171875 0.000518798828125 0.000518798828125 0.00051116943359375 0.9853 
262144 102.051296234131 40.0300254821777 1.1444091796875e-05 8917378.3333 3.00442504882812 33.9670 3.00442504882812 3.00442504882812 3.00341033935547 3.00380325317383 0.000621795654296875 0.000255584716796875 0.0002593994140625 0 0 0.9997 0.9998 0.9853 <error: 0.00026702880859375 0.0002593994140625 0.0002593994140625 0.000255584716796875 0.9853 
524288 102.025648117065 40.0150127410889 1.1444091796875e-05 8915137.1667 3.00221252441406 33.9835 3.00221252441406 3.00221252441406 3.00170516967773 3.00190162658691 0.000310897827148438 0.000127792358398438 0.00012969970703125 0 0 0.9998 0.9999 0.9853 <error: 0.000133514404296875 0.00012969970703125 0.00012969970703125 0.000127792358398438 0.9853 
1048576 102.024722099304 40.016339302063 1.04904174804688e-05 9725515.9091 3.00186252593994 33.9871 3.00186252593994 3.00186252593994 3.0015697479248 3.00168609619141 0.000176429748535156 6.67572021484375e-05 6.77108764648438e-05 0 9.5367431640625e-07 0.9999 0.9999 0.9859 0.0000 6.866455078125e-05 6.67572021484375e-05 6.67572021484375e-05 6.67572021484375e-05 1.0000 
2097152 102.016759395599 40.0110993385315 1.1444091796875e-05 8914360.4583 3.00129890441895 33.9909 3.00129890441895 3.00129890441895 3.00115203857422 3.00121021270752 8.86917114257812e-05 3.33786010742188e-05 3.38554382324219e-05 0 4.76837158203125e-07 1.0000 1.0000 0.9859 0.0000 3.4332275390625e-05 3.33786010742188e-05 3.33786010742188e-05 3.33786010742188e-05 1.0000 
4194304 102.012776136398 40.0084793567657 1.04904174804688e-05 9724377.1591 3.00101637840271 33.9927 3.00101637840271 3.00101637840271 3.00094270706177 3.00097155570984 4.48226928710938e-05 1.66893005371094e-05 1.69277191162109e-05 0 2.38418579101562e-07 1.0000 1.0000 0.9859 0.0000 1.71661376953125e-05 1.66893005371094e-05 1.66893005371094e-05 1.66893005371094e-05 1.0000 
