#set_size_in_keys sim_num_insn sim_num_refs sim_elapsed_time sim_inst_rate il1.accesses il1.hits il1.misses il1.replacements il1.writebacks il1.invalidations il1.miss_rate il1.repl_rate il1.wb_rate il1.inv_rate dl1.accesses dl1.hits dl1.misses dl1.replacements dl1.writebacks dl1.invalidations dl1.miss_rate dl1.repl_rate dl1.wb_rate dl1.inv_rate dl2.accesses dl2.hits dl2.misses dl2.replacements dl2.writebacks dl2.invalidations dl2.miss_rate dl2.repl_rate dl2.wb_rate dl2.inv_rate itlb.accesses itlb.hits itlb.misses itlb.replacements itlb.writebacks itlb.invalidations itlb.miss_rate itlb.repl_rate itlb.wb_rate itlb.inv_rate dtlb.accesses dtlb.hits dtlb.misses dtlb.replacements dtlb.writebacks dtlb.invalidations dtlb.miss_rate dtlb.repl_rate dtlb.wb_rate dtlb.inv_rate ld_text_base ld_text_size ld_data_base ld_data_size ld_stack_base ld_stack_size ld_prog_entry ld_environ_base ld_target_big_endian mem.page_count mem.page_mem mem.ptab_misses mem.ptab_accesses mem.ptab_miss_rate
4096 248.56640625 68.37646484375 0.00146484375 169688.0000 248.56640625 248.459716796875 0.106689453125 0.044189453125 0 0 0.0004 0.0002 0.0000 0.0000 72.39599609375 71.419189453125 0.976806640625 0.914306640625 0.775146484375 0 0.0135 0.0126 0.0107 0.0000 1.858642578125 1.4033203125 0.455322265625 0 0 0 0.2450 0.0000 0.0000 0.0000 248.56640625 248.5634765625 0.0029296875 0 0 0 0.0000 0.0000 0.0000 0.0000 72.39599609375 72.39208984375 0.00390625 0 0 0 0.0001 0.0000 0.0000 0.0000 0x00400000 18.7734375 0x10000000 2.0126953125 0x7fffc000 4 0x00400140 0x7fff8000 0 0.008544921875 140k 0.008544921875 1255.36376953125 0.0000 
8192 267.187377929688 73.3057861328125 0.0009765625 273599.8750 267.187377929688 267.131713867188 0.0556640625 0.0244140625 0 0 0.0002 0.0001 0.0000 0.0000 77.3155517578125 76.06005859375 1.2554931640625 1.2242431640625 1.070068359375 0 0.0162 0.0158 0.0138 0.0000 2.3812255859375 2.029541015625 0.3516845703125 0 0 0 0.1477 0.0000 0.0000 0.0000 267.187377929688 267.185913085938 0.00146484375 0 0 0 0.0000 0.0000 0.0000 0.0000 77.3155517578125 77.3126220703125 0.0029296875 0 0 0 0.0000 0.0000 0.0000 0.0000 0x00400000 9.390625 0x10000000 1.00634765625 0x7fffc000 2 0x00400140 0x7fff8000 0 0.0052490234375 172k 0.0052490234375 1281.55712890625 0.0000 
16384 288.611877441406 79.0228271484375 0.0008544921875 337758.3571 288.611877441406 288.584533691406 0.02734375 0.01171875 0 0 0.0001 0.0000 0.0000 0.0000 83.0277099609375 81.4087524414062 1.61895751953125 1.60333251953125 1.44158935546875 0 0.0195 0.0193 0.0174 0.0000 3.087890625 2.7874755859375 0.3004150390625 0 0 0 0.0973 0.0000 0.0000 0.0000 288.611877441406 288.611145019531 0.000732421875 0 0 0 0.0000 0.0000 0.0000 0.0000 83.0277099609375 83.0252685546875 0.00244140625 0 0 0 0.0000 0.0000 0.0000 0.0000 0x00400000 4.6962890625 0x10000000 0.503173828125 0x7fffc000 1 0x00400140 0x7fff8000 0 0.00360107421875 236k 0.00360107421875 1349.59704589844 0.0000 
32768 305.22216796875 83.4243469238281 0.00079345703125 384673.8462 305.22216796875 305.208221435547 0.013946533203125 0.006134033203125 0 0 0.0000 0.0000 0.0000 0.0000 87.4267883300781 85.4285583496094 1.99822998046875 1.99041748046875 1.82199096679688 0 0.0229 0.0228 0.0208 0.0000 3.83416748046875 3.5587158203125 0.27545166015625 0 0 0 0.0718 0.0000 0.0000 0.0000 305.22216796875 305.221801757812 0.0003662109375 0 0 0 0.0000 0.0000 0.0000 0.0000 87.4267883300781 87.4245910644531 0.002197265625 0 0 0 0.0000 0.0000 0.0000 0.0000 0x00400000 2.3486328125 0x10000000 0.2515869140625 0x7fffc000 0.5 0x00400140 0x7fff8000 0 0.002777099609375 364k 0.002777099609375 1410.29223632812 0.0000 
65536 324.971206665039 88.8230895996094 0.0007171630859375 453134.3191 324.971206665039 324.964233398438 0.0069732666015625 0.0030670166015625 0 0 0.0000 0.0000 0.0000 0.0000 92.8243103027344 90.4252624511719 2.3990478515625 2.3951416015625 2.22257995605469 0 0.0258 0.0258 0.0239 0.0000 4.62860107421875 4.36587524414062 0.262725830078125 0 0 0 0.0568 0.0000 0.0000 0.0000 324.971206665039 324.97102355957 0.00018310546875 0 0 0 0.0000 0.0000 0.0000 0.0000 92.8243103027344 92.8220672607422 0.0022430419921875 0.0002899169921875 0.000244140625 0 0.0000 0.0000 0.0000 0.0000 0x00400000 1.17431640625 0x10000000 0.12579345703125 0x7fffc000 0.25 0x00400140 0x7fff8000 0 0.0023651123046875 620k 0.0023651123046875 1492.80844116211 0.0000 
131072 346.801727294922 94.772590637207 0.0006256103515625 554341.4146 346.801727294922 346.798248291016 0.00347900390625 0.00152587890625 0 0 0.0000 0.0000 0.0000 0.0000 98.7732009887695 95.9863510131836 2.78684997558594 2.78489685058594 2.60969543457031 0 0.0282 0.0282 0.0264 0.0000 5.4000244140625 5.14366912841797 0.256355285644531 0 0 0 0.0475 0.0000 0.0000 0.0000 346.801727294922 346.801635742188 9.1552734375e-05 0 0 0 0.0000 0.0000 0.0000 0.0000 98.7732009887695 98.767448425293 0.0057525634765625 0.0047760009765625 0.0038299560546875 0 0.0001 0.0000 0.0000 0.0000 0x00400000 0.587158203125 0x10000000 0.062896728515625 0x7fffc000 0.125 0x00400140 0x7fff8000 0 0.00215911865234375 1132k 0.00215911865234375 1588.39080810547 0.0000 
262144 363.842060089111 99.3352508544922 0.000453948974609375 801504.3109 363.842060089111 363.840320587158 0.001739501953125 0.000762939453125 0 0 0.0000 0.0000 0.0000 0.0000 103.335556030273 100.157562255859 3.17799377441406 3.17701721191406 3.00139617919922 0 0.0308 0.0307 0.0290 0.0000 6.18112945556641 5.83840179443359 0.342727661132812 0.0927276611328125 0.0899162292480469 0 0.0554 0.0150 0.0145 0.0000 363.842060089111 363.842014312744 4.57763671875e-05 0 0 0 0.0000 0.0000 0.0000 0.0000 103.335556030273 103.160121917725 0.175434112548828 0.174945831298828 0.169486999511719 0 0.0017 0.0017 0.0016 0.0000 0x00400000 0.2935791015625 0x10000000 0.0314483642578125 0x7fffc000 0.0625 0x00400140 0x7fff8000 0 0.00205612182617188 2156k 0.00205612182617188 1663.85810089111 0.0000 
524288 383.613208770752 104.767292022705 0.000291824340820312 1314534.6536 383.613208770752 383.612339019775 0.0008697509765625 0.0003814697265625 0 0 0.0000 0.0000 0.0000 0.0000 108.767444610596 105.200019836426 3.56742477416992 3.56693649291992 3.38988494873047 0 0.0328 0.0328 0.0312 0.0000 6.95817947387695 6.33896064758301 0.619218826293945 0.494218826293945 0.367744445800781 0 0.0890 0.0710 0.0529 0.0000 383.613208770752 383.613185882568 2.288818359375e-05 0 0 0 0.0000 0.0000 0.0000 0.0000 108.767444610596 108.274660110474 0.49278450012207 0.49254035949707 0.474306106567383 0 0.0045 0.0045 0.0044 0.0000 0x00400000 0.14678955078125 0x10000000 0.0157241821289062 0x7fffc000 0.03125 0x00400140 0x7fff8000 0 0.00200462341308594 4204k 0.00200462341308594 1752.89709854126 0.0000 
1048576 405.502168655396 110.759816169739 0.000215530395507812 1881415.2301 405.502168655396 405.501703262329 0.00046539306640625 0.00022125244140625 0 0 0.0000 0.0000 0.0000 0.0000 114.759892463684 110.818101882935 3.94179058074951 3.94154644012451 3.76421546936035 0 0.0343 0.0343 0.0328 0.0000 7.70647144317627 6.84657287597656 0.859898567199707 0.797398567199707 0.661856651306152 0 0.1116 0.1035 0.0859 0.0000 405.502168655396 405.502157211304 1.1444091796875e-05 0 0 0 0.0000 0.0000 0.0000 0.0000 114.759892463684 113.878744125366 0.881148338317871 0.881026268005371 0.850274085998535 0 0.0077 0.0077 0.0074 0.0000 0x00400000 0.073394775390625 0x10000000 0.00786209106445312 0x7fffc000 0.015625 0x00400140 0x7fff8000 0 0.00198459625244141 8324k 0.00854015350341797 1851.98314666748 0.0000 
2097152 422.559717655182 115.333509922028 0.000178813934326172 2363125.2187 422.559717655182 422.559484958649 0.000232696533203125 0.000110626220703125 0 0 0.0000 0.0000 0.0000 0.0000 119.333548069 115.010510921478 4.32303714752197 4.32291507720947 4.14528036117554 0 0.0362 0.0362 0.0347 0.0000 8.46855020523071 7.26895093917847 1.19959926605225 1.16834926605225 1.0188045501709 0 0.1417 0.1380 0.1203 0.0000 422.559717655182 422.559711933136 5.7220458984375e-06 0 0 0 0.0000 0.0000 0.0000 0.0000 119.333548069 118.05141544342 1.28213262557983 1.28207159042358 1.24212741851807 0 0.0107 0.0107 0.0104 0.0000 0x00400000 0.0366973876953125 0x10000000 0.00393104553222656 0x7fffc000 0.0078125 0x00400140 0x7fff8000 0 0.00197172164916992 16540k 0.0162339210510254 1929.13331031799 0.0000 
4194304 442.362344503403 120.779492855072 0.000165700912475586 2669643.3827 442.362344503403 442.362228155136 0.000116348266601562 5.53131103515625e-05 0 0 0.0000 0.0000 0.0000 0.0000 124.779511928558 120.084641933441 4.69486999511719 4.69480895996094 4.51725745201111 0 0.0376 0.0376 0.0362 0.0000 9.2122437953949 7.62407755851746 1.58816623687744 1.57254123687744 1.41221070289612 0 0.1724 0.1707 0.1533 0.0000 442.362344503403 442.36234164238 2.86102294921875e-06 0 0 0 0.0000 0.0000 0.0000 0.0000 124.779511928558 123.085991621017 1.69352030754089 1.69348978996277 1.64788913726807 0 0.0136 0.0136 0.0132 0.0000 0x00400000 0.0183486938476562 0x10000000 0.00196552276611328 0x7fffc000 0.00390625 0x00400140 0x7fff8000 0 0.00196528434753418 32972k 0.0146067142486572 2019.12207365036 0.0000 
