#set_size_in_keys sim_num_insn sim_num_refs sim_elapsed_time sim_inst_rate sim_num_branches sim_IPB bpred_bimod.lookups bpred_bimod.updates bpred_bimod.addr_hits bpred_bimod.dir_hits bpred_bimod.misses bpred_bimod.jr_hits bpred_bimod.jr_seen bpred_bimod.jr_non_ras_hits.PP bpred_bimod.jr_non_ras_seen.PP bpred_bimod.bpred_addr_rate bpred_bimod.bpred_dir_rate bpred_bimod.bpred_jr_rate bpred_bimod.bpred_jr_non_ras_rate.PP bpred_bimod.retstack_pushes bpred_bimod.retstack_pops bpred_bimod.used_ras.PP bpred_bimod.ras_hits.PP bpred_bimod.ras_rate.PP
4096 248.56640625 68.37646484375 0.000244140625 1018128.0000 41.98974609375 5.9197 41.98974609375 41.98974609375 34.31005859375 34.339111328125 7.650634765625 1.014404296875 1.014404296875 0 0 0.8171 0.8178 1.0000 <error: 1.014892578125 1.014404296875 1.014404296875 1.014404296875 1.0000 
8192 267.187377929688 73.3057861328125 0.0001220703125 2188799.0000 45.24609375 5.9052 45.24609375 45.24609375 37.0703125 37.08544921875 8.16064453125 1.0081787109375 1.00830078125 0 0 0.8193 0.8196 0.9999 <error: 1.008544921875 1.00830078125 1.00830078125 1.0081787109375 0.9999 
16384 288.611877441406 79.0228271484375 6.103515625e-05 4728617.0000 48.9295654296875 5.8985 48.9295654296875 48.9295654296875 40.2124633789062 40.2200317382812 8.70953369140625 1.00408935546875 1.004150390625 0 0 0.8218 0.8220 0.9999 <error: 1.0042724609375 1.004150390625 1.004150390625 1.00408935546875 0.9999 
32768 305.22216796875 83.4243469238281 6.103515625e-05 5000760.0000 51.72607421875 5.9007 51.72607421875 51.72607421875 42.2306213378906 42.2344055175781 9.49166870117188 1.00204467773438 1.0020751953125 0 0 0.8164 0.8165 1.0000 <error: 1.00213623046875 1.0020751953125 1.0020751953125 1.00204467773438 1.0000 
65536 324.971206665039 88.8230895996094 4.57763671875e-05 7099104.3333 55.1262664794922 5.8950 55.1262664794922 55.1262664794922 44.9822082519531 44.9841003417969 10.1421661376953 1.00102233886719 1.00103759765625 0 0 0.8160 0.8160 1.0000 <error: 1.00106811523438 1.00103759765625 1.00103759765625 1.00102233886719 1.0000 
131072 346.801727294922 94.772590637207 4.57763671875e-05 7575999.3333 58.8560638427734 5.8924 58.8560638427734 58.8560638427734 48.1618499755859 48.1628036499023 10.6932601928711 1.00051116943359 1.00051879882812 0 0 0.8183 0.8183 1.0000 <error: 1.00053405761719 1.00051879882812 1.00051879882812 1.00051116943359 1.0000 
262144 363.842060089111 99.3352508544922 4.57763671875e-05 7948251.0833 61.7152061462402 5.8955 61.7152061462402 61.7152061462402 50.2367248535156 50.2371978759766 11.4780082702637 1.0002555847168 1.00025939941406 0 0 0.8140 0.8140 1.0000 <error: 1.00026702880859 1.00025939941406 1.00025939941406 1.0002555847168 1.0000 
524288 383.613208770752 104.767292022705 4.9591064453125e-05 7735530.8462 65.1130104064941 5.8915 65.1130104064941 65.1130104064941 52.9897003173828 52.9899387359619 12.1230716705322 1.0001277923584 1.00012969970703 0 0 0.8138 0.8138 1.0000 <error: 1.0001335144043 1.00012969970703 1.00012969970703 1.0001277923584 1.0000 
1048576 405.502168655396 110.759816169739 5.340576171875e-05 7592854.3214 68.8550806045532 5.8892 68.8550806045532 68.8550806045532 56.216947555542 56.2170782089233 12.6380023956299 1.00006675720215 1.00006771087646 0 9.5367431640625e-07 0.8165 0.8165 1.0000 0.0000 1.00006866455078 1.00006675720215 1.00006675720215 1.00006675720215 1.0000 
2097152 422.559717655182 115.333509922028 5.57899475097656e-05 7574119.2906 71.715434551239 5.8922 71.715434551239 71.715434551239 58.2731857299805 58.2732510566711 13.4421834945679 1.00003337860107 1.00003385543823 0 4.76837158203125e-07 0.8126 0.8126 1.0000 0.0000 1.00003433227539 1.00003337860107 1.00003337860107 1.00003337860107 1.0000 
4194304 442.362344503403 120.779492855072 5.86509704589844e-05 7542285.1667 75.1203103065491 5.8887 75.1203103065491 75.1203103065491 61.0521693229675 61.0522022247314 14.0681080818176 1.00001668930054 1.00001692771912 0 2.38418579101562e-07 0.8127 0.8127 1.0000 0.0000 1.0000171661377 1.00001668930054 1.00001668930054 1.00001668930054 1.0000 
