#set_size_in_keys sim_num_insn sim_num_refs sim_elapsed_time sim_inst_rate il1.accesses il1.hits il1.misses il1.replacements il1.writebacks il1.invalidations il1.miss_rate il1.repl_rate il1.wb_rate il1.inv_rate dl1.accesses dl1.hits dl1.misses dl1.replacements dl1.writebacks dl1.invalidations dl1.miss_rate dl1.repl_rate dl1.wb_rate dl1.inv_rate dl2.accesses dl2.hits dl2.misses dl2.replacements dl2.writebacks dl2.invalidations dl2.miss_rate dl2.repl_rate dl2.wb_rate dl2.inv_rate itlb.accesses itlb.hits itlb.misses itlb.replacements itlb.writebacks itlb.invalidations itlb.miss_rate itlb.repl_rate itlb.wb_rate itlb.inv_rate dtlb.accesses dtlb.hits dtlb.misses dtlb.replacements dtlb.writebacks dtlb.invalidations dtlb.miss_rate dtlb.repl_rate dtlb.wb_rate dtlb.inv_rate ld_text_base ld_text_size ld_data_base ld_data_size ld_stack_base ld_stack_size ld_prog_entry ld_environ_base ld_target_big_endian mem.page_count mem.page_mem mem.ptab_misses mem.ptab_accesses mem.ptab_miss_rate
4096 246.52197265625 69.335205078125 0.001220703125 201950.8000 246.52197265625 246.413818359375 0.108154296875 0.045654296875 0 0 0.0004 0.0002 0.0000 0.0000 69.352294921875 68.3212890625 1.031005859375 0.968505859375 0.82470703125 0 0.0149 0.0140 0.0119 0.0000 1.9638671875 1.506591796875 0.457275390625 0 0 0 0.2328 0.0000 0.0000 0.0000 246.52197265625 246.52001953125 0.001953125 0 0 0 0.0000 0.0000 0.0000 0.0000 69.352294921875 69.3486328125 0.003662109375 0 0 0 0.0001 0.0000 0.0000 0.0000 0x00400000 7.109375 0x10000000 1 0x7fffc000 4 0x00400140 0x7fff8000 0 0.005615234375 92k 0.005615234375 1168.7216796875 0.0000 
8192 261.080322265625 72.3802490234375 0.0009765625 267346.2500 261.080322265625 261.024291992188 0.0560302734375 0.0247802734375 0 0 0.0002 0.0001 0.0000 0.0000 72.3887939453125 70.923095703125 1.4656982421875 1.4344482421875 1.268310546875 0 0.0202 0.0198 0.0175 0.0000 2.7900390625 2.437744140625 0.352294921875 0 0 0 0.1263 0.0000 0.0000 0.0000 261.080322265625 261.079345703125 0.0009765625 0 0 0 0.0000 0.0000 0.0000 0.0000 72.3887939453125 72.385986328125 0.0028076171875 0 0 0 0.0000 0.0000 0.0000 0.0000 0x00400000 3.55859375 0x10000000 0.5 0x7fffc000 2 0x00400140 0x7fff8000 0 0.0037841796875 124k 0.0037841796875 1211.0869140625 0.0000 
16384 276.476379394531 75.8631591796875 0.00079345703125 348445.3077 276.476379394531 276.448852539062 0.02752685546875 0.01190185546875 0 0 0.0001 0.0000 0.0000 0.0000 75.867431640625 73.8648071289062 2.00262451171875 1.98699951171875 1.80328369140625 0 0.0264 0.0262 0.0238 0.0000 3.83343505859375 3.5325927734375 0.30084228515625 0 0 0 0.0785 0.0000 0.0000 0.0000 276.476379394531 276.475891113281 0.00048828125 0 0 0 0.0000 0.0000 0.0000 0.0000 75.867431640625 75.8650512695312 0.00238037109375 0 0 0 0.0000 0.0000 0.0000 0.0000 0x00400000 1.7802734375 0x10000000 0.25 0x7fffc000 1 0x00400140 0x7fff8000 0 0.00286865234375 188k 0.00286865234375 1268.64025878906 0.0000 
32768 292.192596435547 79.5547790527344 0.000701904296875 416285.5217 292.192596435547 292.178802490234 0.0137939453125 0.0059814453125 0 0 0.0000 0.0000 0.0000 0.0000 79.5569152832031 76.9713134765625 2.58560180664062 2.57778930664062 2.37890625 0 0.0325 0.0324 0.0299 0.0000 4.97830200195312 4.70285034179688 0.27545166015625 0 0 0 0.0553 0.0000 0.0000 0.0000 292.192596435547 292.192352294922 0.000244140625 0 0 0 0.0000 0.0000 0.0000 0.0000 79.5569152832031 79.5547485351562 0.002166748046875 0 0 0 0.0000 0.0000 0.0000 0.0000 0x00400000 0.89111328125 0x10000000 0.125 0x7fffc000 0.5 0x00400140 0x7fff8000 0 0.002410888671875 316k 0.002410888671875 1333.39001464844 0.0000 
65536 308.784133911133 83.4941711425781 0.000640869140625 481820.8810 308.784133911133 308.777236938477 0.00689697265625 0.00299072265625 0 0 0.0000 0.0000 0.0000 0.0000 83.4952392578125 80.3154296875 3.1798095703125 3.1759033203125 2.97041320800781 0 0.0381 0.0380 0.0356 0.0000 6.15711975097656 5.89439392089844 0.262725830078125 0 0 0 0.0427 0.0000 0.0000 0.0000 308.784133911133 308.78401184082 0.0001220703125 0 0 0 0.0000 0.0000 0.0000 0.0000 83.4952392578125 83.4930267333984 0.0022125244140625 0.0002593994140625 0.0002288818359375 0 0.0000 0.0000 0.0000 0.0000 0x00400000 0.445556640625 0x10000000 0.0625 0x7fffc000 0.25 0x00400140 0x7fff8000 0 0.0021820068359375 572k 0.0021820068359375 1404.87991333008 0.0000 
131072 325.010185241699 87.3915328979492 0.00058746337890625 553243.3117 325.010185241699 325.006736755371 0.003448486328125 0.001495361328125 0 0 0.0000 0.0000 0.0000 0.0000 87.3920669555664 83.6161422729492 3.77592468261719 3.77397155761719 3.5640869140625 0 0.0432 0.0432 0.0408 0.0000 7.34346008300781 7.08709716796875 0.256362915039062 0 0 0 0.0349 0.0000 0.0000 0.0000 325.010185241699 325.010124206543 6.103515625e-05 0 0 0 0.0000 0.0000 0.0000 0.0000 87.3920669555664 87.3860321044922 0.00603485107421875 0.00505828857421875 0.00409698486328125 0 0.0001 0.0001 0.0000 0.0000 0x00400000 0.2227783203125 0x10000000 0.03125 0x7fffc000 0.125 0x00400140 0x7fff8000 0 0.00206756591796875 1084k 0.00206756591796875 1476.20132446289 0.0000 
262144 341.729030609131 91.411003112793 0.000408172607421875 837216.9626 341.729030609131 341.727306365967 0.0017242431640625 0.0007476806640625 0 0 0.0000 0.0000 0.0000 0.0000 91.4112701416016 87.0475921630859 4.36367797851562 4.36270141601562 4.14942169189453 0 0.0477 0.0477 0.0454 0.0000 8.51482391357422 8.13851547241211 0.376308441162109 0.126308441162109 0.123516082763672 0 0.0442 0.0148 0.0145 0.0000 341.729030609131 341.729000091553 3.0517578125e-05 0 0 0 0.0000 0.0000 0.0000 0.0000 91.4112701416016 91.1924171447754 0.218852996826172 0.218364715576172 0.206527709960938 0 0.0024 0.0024 0.0023 0.0000 0x00400000 0.11138916015625 0x10000000 0.015625 0x7fffc000 0.0625 0x00400140 0x7fff8000 0 0.00201034545898438 2108k 0.00201034545898438 1550.42688751221 0.0000 
524288 358.02222442627 95.349609375 0.000270843505859375 1321878.5634 358.02222442627 358.021362304688 0.00086212158203125 0.00037384033203125 0 0 0.0000 0.0000 0.0000 0.0000 95.3497428894043 90.4030933380127 4.9466495513916 4.9461612701416 4.73196983337402 0 0.0519 0.0519 0.0496 0.0000 9.67948150634766 9.05689239501953 0.622589111328125 0.497589111328125 0.370807647705078 0 0.0643 0.0514 0.0383 0.0000 358.02222442627 358.02220916748 1.52587890625e-05 0 0 0 0.0000 0.0000 0.0000 0.0000 95.3497428894043 94.6810646057129 0.668678283691406 0.668434143066406 0.632917404174805 0 0.0070 0.0070 0.0066 0.0000 0x00400000 0.055694580078125 0x10000000 0.0078125 0x7fffc000 0.03125 0x00400140 0x7fff8000 0 0.00198173522949219 4156k 0.00198173522949219 1623.13249588013 0.0000 
1048576 374.791726112366 99.3974514007568 0.000424385070800781 883140.6944 374.791726112366 374.791262626648 0.000463485717773438 0.000219345092773438 0 0 0.0000 0.0000 0.0000 0.0000 99.397518157959 93.87766456604 5.51985359191895 5.51960945129395 5.30447959899902 0 0.0555 0.0555 0.0534 0.0000 10.8247966766357 9.89891147613525 0.925885200500488 0.863385200500488 0.721253395080566 0 0.0855 0.0798 0.0666 0.0000 374.791726112366 374.791718482971 7.62939453125e-06 0 0 0 0.0000 0.0000 0.0000 0.0000 99.397518157959 98.1636638641357 1.23385429382324 1.23373222351074 1.1773509979248 0 0.0124 0.0124 0.0118 0.0000 0x00400000 0.0278472900390625 0x10000000 0.00390625 0x7fffc000 0.015625 0x00400140 0x7fff8000 0 0.00197315216064453 8276k 0.0107259750366211 1698.1339969635 0.0000 
2097152 391.09703874588 103.345524311066 0.000640869140625 610260.3698 391.09703874588 391.096807003021 0.000231742858886719 0.000109672546386719 0 0 0.0000 0.0000 0.0000 0.0000 103.345557689667 97.2593560218811 6.08620166778564 6.08607959747314 5.87060689926147 0 0.0589 0.0589 0.0568 0.0000 11.957040309906 10.5512738227844 1.40576648712158 1.37451648712158 1.20902490615845 0 0.1176 0.1150 0.1011 0.0000 391.09703874588 391.097034931183 3.814697265625e-06 0 0 0 0.0000 0.0000 0.0000 0.0000 103.345557689667 101.508962631226 1.83659505844116 1.83653402328491 1.76558113098145 0 0.0178 0.0178 0.0171 0.0000 0x00400000 0.0139236450195312 0x10000000 0.001953125 0x7fffc000 0.0078125 0x00400140 0x7fff8000 0 0.00196599960327148 16492k 0.0110344886779785 1771.16529846191 0.0000 
4194304 407.856253862381 107.388444185257 0.000589847564697266 691460.4353 407.856253862381 407.856137990952 0.000115871429443359 5.48362731933594e-05 0 0 0.0000 0.0000 0.0000 0.0000 107.388460874557 100.739985227585 6.64847564697266 6.64841461181641 6.43234705924988 0 0.0619 0.0619 0.0599 0.0000 13.080938577652 11.1118144989014 1.96912407875061 1.95349907875061 1.76843476295471 0 0.1505 0.1493 0.1352 0.0000 407.856253862381 407.856251955032 1.9073486328125e-06 0 0 0 0.0000 0.0000 0.0000 0.0000 107.388460874557 104.933607816696 2.45485305786133 2.4548225402832 2.3745391368866 0 0.0229 0.0229 0.0221 0.0000 0x00400000 0.00696182250976562 0x10000000 0.0009765625 0x7fffc000 0.00390625 0x00400140 0x7fff8000 0 0.00196242332458496 32924k 0.0154678821563721 1846.24495124817 0.0000 
