#set_size_in_keys sim_num_insn sim_num_refs sim_elapsed_time sim_inst_rate sim_num_branches sim_IPB bpred_bimod.lookups bpred_bimod.updates bpred_bimod.addr_hits bpred_bimod.dir_hits bpred_bimod.misses bpred_bimod.jr_hits bpred_bimod.jr_seen bpred_bimod.jr_non_ras_hits.PP bpred_bimod.jr_non_ras_seen.PP bpred_bimod.bpred_addr_rate bpred_bimod.bpred_dir_rate bpred_bimod.bpred_jr_rate bpred_bimod.bpred_jr_non_ras_rate.PP bpred_bimod.retstack_pushes bpred_bimod.retstack_pops bpred_bimod.used_ras.PP bpred_bimod.ras_hits.PP bpred_bimod.ras_rate.PP
4096 11959.0068359375 4783.27416992188 0.00146484375 8164015.3333 1708.15356445312 7.0011 1708.15356445312 1708.15356445312 1369.18237304688 1369.2060546875 338.947509765625 0.013427734375 0.013671875 0 0 0.8016 0.8016 0.9821 <error: 0.01416015625 0.013671875 0.013671875 0.013427734375 0.9821 
8192 23850.4666748047 9539.37902832031 0.0028076171875 8494914.0435 3407.12829589844 7.0002 3407.12829589844 3407.12829589844 2727.33288574219 2727.34460449219 679.78369140625 0.0067138671875 0.0068359375 0 0 0.8005 0.8005 0.9821 <error: 0.007080078125 0.0068359375 0.0068359375 0.0067138671875 0.9821 
16384 48237.6561279297 19295.0814819336 0.00567626953125 8498126.4301 6890.5361328125 7.0006 6890.5361328125 6890.5361328125 5529.14221191406 5529.14819335938 1361.38793945312 0.00335693359375 0.00341796875 0 0 0.8024 0.8024 0.9821 <error: 0.0035400390625 0.00341796875 0.00341796875 0.00335693359375 0.9821 
32768 95417.5985717773 38158.5664978027 0.01129150390625 8450388.8378 13635.0737609863 6.9980 13635.0737609863 13635.0737609863 10908.1430053711 10908.1459350586 2726.92782592773 0.001678466796875 0.001708984375 0 0 0.8000 0.8000 0.9821 <error: 0.00177001953125 0.001708984375 0.001708984375 0.001678466796875 0.9821 
65536 190882.666564941 76342.8020324707 0.0201263427734375 9484220.1941 27273.8910217285 6.9987 27273.8910217285 27273.8910217285 21822.0827026367 21822.0841827393 5451.80683898926 0.0008392333984375 0.0008544921875 0 0 0.8001 0.8001 0.9821 <error: 0.000885009765625 0.0008544921875 0.0008544921875 0.0008392333984375 0.9821 
