#set_size_in_keys sim_num_insn sim_num_refs sim_elapsed_time sim_inst_rate sim_num_branches sim_IPB bpred_2lev.lookups bpred_2lev.updates bpred_2lev.addr_hits bpred_2lev.dir_hits bpred_2lev.misses bpred_2lev.jr_hits bpred_2lev.jr_seen bpred_2lev.jr_non_ras_hits.PP bpred_2lev.jr_non_ras_seen.PP bpred_2lev.bpred_addr_rate bpred_2lev.bpred_dir_rate bpred_2lev.bpred_jr_rate bpred_2lev.bpred_jr_non_ras_rate.PP bpred_2lev.retstack_pushes bpred_2lev.retstack_pops bpred_2lev.used_ras.PP bpred_2lev.ras_hits.PP bpred_2lev.ras_rate.PP
4096 113.750244140625 29.92529296875 0.000244140625 465921.0000 18.762939453125 6.0625 18.762939453125 18.762939453125 12.8662109375 12.894287109375 5.86865234375 0.120849609375 0.120849609375 0 0 0.6857 0.6872 1.0000 <error: 0.121337890625 0.120849609375 0.120849609375 0.120849609375 1.0000 
8192 124.469360351562 31.947998046875 0.0001220703125 1019653.0000 20.671142578125 6.0214 20.671142578125 20.671142578125 14.381591796875 14.3958740234375 6.2752685546875 0.116455078125 0.116455078125 0 0 0.6957 0.6964 1.0000 <error: 0.11669921875 0.116455078125 0.116455078125 0.116455078125 1.0000 
16384 132.080688476562 33.6801147460938 6.103515625e-05 2164010.0000 22.1217041015625 5.9706 22.1217041015625 22.1217041015625 15.4862060546875 15.4930419921875 6.628662109375 0.11065673828125 0.11065673828125 0 0 0.7000 0.7004 1.0000 <error: 0.11077880859375 0.11065673828125 0.11065673828125 0.11065673828125 1.0000 
32768 142.413818359375 35.8150024414062 3.0517578125e-05 4666616.0000 23.9466247558594 5.9471 23.9466247558594 23.9466247558594 16.9579772949219 16.9615173339844 6.985107421875 0.11016845703125 0.11016845703125 0 0 0.7082 0.7083 1.0000 <error: 0.1102294921875 0.11016845703125 0.11016845703125 0.11016845703125 1.0000 
65536 152.617279052734 38.1328887939453 1.52587890625e-05 10001926.0000 25.7924957275391 5.9171 25.7924957275391 25.7924957275391 18.2797546386719 18.2815856933594 7.51091003417969 0.107803344726562 0.107803344726562 0 0 0.7087 0.7088 1.0000 <error: 0.107833862304688 0.107803344726562 0.107803344726562 0.107803344726562 1.0000 
131072 158.389350891113 39.7159423828125 1.52587890625e-05 10380204.5000 26.8293762207031 5.9036 26.8293762207031 26.8293762207031 18.7450942993164 18.7459945678711 8.08338165283203 0.107421875 0.107421875 0 0 0.6987 0.6987 1.0000 <error: 0.107437133789062 0.107421875 0.107421875 0.107421875 1.0000 
262144 171.741680145264 42.4147567749023 2.288818359375e-05 7503508.5000 29.1704864501953 5.8875 29.1704864501953 29.1704864501953 20.8794860839844 20.8799324035645 8.29055404663086 0.107524871826172 0.107524871826172 0 0 0.7158 0.7158 1.0000 <error: 0.107532501220703 0.107524871826172 0.107524871826172 0.107524871826172 1.0000 
524288 179.478420257568 44.3612060546875 2.288818359375e-05 7841531.8333 30.6060562133789 5.8641 30.6060562133789 30.6060562133789 21.760892868042 21.7611122131348 8.84494400024414 0.107290267944336 0.107290267944336 0 0 0.7110 0.7110 1.0000 <error: 0.107294082641602 0.107290267944336 0.107290267944336 0.107290267944336 1.0000 
1048576 191.03945350647 46.8030128479004 2.47955322265625e-05 7704591.7692 32.6235494613647 5.8559 32.6235494613647 32.6235494613647 23.4695425033569 23.4696531295776 9.15389633178711 0.107254028320312 0.107254028320312 0 0 0.7194 0.7194 1.0000 <error: 0.107255935668945 0.107254028320312 0.107254028320312 0.107254028320312 1.0000 
2097152 290.054092884064 67.878707408905 3.814697265625e-05 7603594.0125 52.2616596221924 5.5500 52.2616596221924 52.2616596221924 42.1208162307739 42.1209020614624 10.14075756073 0.115317821502686 0.115318298339844 0 4.76837158203125e-07 0.8060 0.8060 1.0000 0.0000 0.115318775177002 0.115317821502686 0.115317821502686 0.115317821502686 1.0000 
4194304 337.634333848953 77.6275675296783 4.62532043457031e-05 7299696.0670 64.8043780326843 5.2101 64.8043780326843 64.8043780326843 55.2070391178131 55.2070798873901 9.59729814529419 0.107814788818359 0.107815027236938 0 2.38418579101562e-07 0.8519 0.8519 1.0000 0.0000 0.107815265655518 0.107814788818359 0.107814788818359 0.107814788818359 1.0000 
