#set_size_in_keys sim_num_insn sim_num_refs sim_elapsed_time sim_inst_rate sim_num_branches sim_IPB bpred_bimod.lookups bpred_bimod.updates bpred_bimod.addr_hits bpred_bimod.dir_hits bpred_bimod.misses bpred_bimod.jr_hits bpred_bimod.jr_seen bpred_bimod.jr_non_ras_hits.PP bpred_bimod.jr_non_ras_seen.PP bpred_bimod.bpred_addr_rate bpred_bimod.bpred_dir_rate bpred_bimod.bpred_jr_rate bpred_bimod.bpred_jr_non_ras_rate.PP bpred_bimod.retstack_pushes bpred_bimod.retstack_pops bpred_bimod.used_ras.PP bpred_bimod.ras_hits.PP bpred_bimod.ras_rate.PP
4096 212.63671875 53.244873046875 0.000244140625 870960.0000 37.85400390625 5.6173 37.85400390625 37.85400390625 30.302734375 30.331787109375 7.522216796875 1.014404296875 1.014404296875 0 0 0.8005 0.8013 1.0000 <error: 1.014892578125 1.014404296875 1.014404296875 1.014404296875 1.0000 
8192 228.048461914062 56.7166748046875 0.0001220703125 1868173.0000 40.7119140625 5.6015 40.7119140625 40.7119140625 32.5869140625 32.6021728515625 8.1097412109375 1.0081787109375 1.00830078125 0 0 0.8004 0.8008 0.9999 <error: 1.008544921875 1.00830078125 1.00830078125 1.0081787109375 0.9999 
16384 244.335693359375 60.5037231445312 6.103515625e-05 4003196.0000 43.6739501953125 5.5945 43.6739501953125 43.6739501953125 34.9852294921875 34.9928588867188 8.68109130859375 1.00408935546875 1.004150390625 0 0 0.8011 0.8012 0.9999 <error: 1.0042724609375 1.004150390625 1.004150390625 1.00408935546875 0.9999 
32768 260.3662109375 64.3255615234375 3.0517578125e-05 8531680.0000 46.6027221679688 5.5869 46.6027221679688 46.6027221679688 37.2866516113281 37.2904357910156 9.31228637695312 1.00204467773438 1.0020751953125 0 0 0.8001 0.8002 1.0000 <error: 1.00213623046875 1.0020751953125 1.0020751953125 1.00204467773438 1.0000 
65536 276.989852905273 68.3011932373047 4.57763671875e-05 6050935.6667 49.6135711669922 5.5829 49.6135711669922 49.6135711669922 39.7182006835938 39.7200927734375 9.89347839355469 1.00102233886719 1.00103759765625 0 0 0.8006 0.8006 1.0000 <error: 1.00106811523438 1.00103759765625 1.00103759765625 1.00102233886719 1.0000 
131072 293.308769226074 72.2403182983398 3.814697265625e-05 7688913.4000 52.5867691040039 5.5776 52.5867691040039 52.5867691040039 42.0679626464844 42.0689163208008 10.5178527832031 1.00051116943359 1.00051879882812 0 0 0.8000 0.8000 1.0000 <error: 1.00053405761719 1.00051879882812 1.00051879882812 1.00051116943359 1.0000 
262144 310.002460479736 76.2624626159668 4.1961669921875e-05 7387753.1818 55.6083030700684 5.5748 55.6083030700684 55.6083030700684 44.5175819396973 44.5180549621582 11.0902481079102 1.0002555847168 1.00025939941406 0 0 0.8006 0.8006 1.0000 <error: 1.00026702880859 1.00025939941406 1.00025939941406 1.0002555847168 1.0000 
524288 326.310752868652 80.2124214172363 4.1961669921875e-05 7776400.5455 58.5746459960938 5.5709 58.5746459960938 58.5746459960938 46.85569190979 46.8559303283691 11.7187156677246 1.0001277923584 1.00012969970703 0 0 0.7999 0.7999 1.0000 <error: 1.0001335144043 1.00012969970703 1.00012969970703 1.0001277923584 1.0000 
1048576 343.076787948608 84.2609634399414 4.57763671875e-05 7494626.7917 61.6075801849365 5.5687 61.6075801849365 61.6075801849365 49.3125219345093 49.312650680542 12.2949295043945 1.00006675720215 1.00006771087646 0 9.5367431640625e-07 0.8004 0.8004 1.0000 0.0000 1.00006866455078 1.00006675720215 1.00006675720215 1.00006675720215 1.0000 
2097152 359.395022392273 88.2121348381042 4.81605529785156e-05 7462435.5446 64.5737962722778 5.5656 64.5737962722778 64.5737962722778 51.6462197303772 51.6462845802307 12.9275116920471 1.00003337860107 1.00003385543823 0 4.76837158203125e-07 0.7998 0.7998 1.0000 0.0000 1.00003433227539 1.00003337860107 1.00003337860107 1.00003337860107 1.0000 
4194304 376.156674146652 92.2565724849701 5.03063201904297e-05 7477324.3744 67.6077306270599 5.5638 67.6077306270599 67.6077306270599 54.1111204624176 54.1111528873444 13.4965777397156 1.00001668930054 1.00001692771912 0 2.38418579101562e-07 0.8004 0.8004 1.0000 0.0000 1.0000171661377 1.00001668930054 1.00001668930054 1.00001668930054 1.0000 
