#set_size_in_keys sim_num_insn sim_num_refs sim_elapsed_time sim_inst_rate sim_num_branches sim_IPB bpred_bimod.lookups bpred_bimod.updates bpred_bimod.addr_hits bpred_bimod.dir_hits bpred_bimod.misses bpred_bimod.jr_hits bpred_bimod.jr_seen bpred_bimod.jr_non_ras_hits.PP bpred_bimod.jr_non_ras_seen.PP bpred_bimod.bpred_addr_rate bpred_bimod.bpred_dir_rate bpred_bimod.bpred_jr_rate bpred_bimod.bpred_jr_non_ras_rate.PP bpred_bimod.retstack_pushes bpred_bimod.retstack_pops bpred_bimod.used_ras.PP bpred_bimod.ras_hits.PP bpred_bimod.ras_rate.PP
4096 14857.1389160156 6143.09301757812 0.001708984375 8693548.7143 2561.37426757812 5.8005 2561.37426757812 2561.37426757812 1977.07739257812 1977.10009765625 584.274169921875 0.013427734375 0.013671875 0 0 0.7719 0.7719 0.9821 <error: 0.01416015625 0.013671875 0.013671875 0.013427734375 0.9821 
8192 29687.8634033203 12276.0723876953 0.0037841796875 7845257.3226 5120.94982910156 5.7973 5120.94982910156 5120.94982910156 3967.79296875 3967.80456542969 1153.14526367188 0.0067138671875 0.0068359375 0 0 0.7748 0.7748 0.9821 <error: 0.007080078125 0.0068359375 0.0068359375 0.0067138671875 0.9821 
16384 59515.6762695312 24651.091003418 0.0074462890625 7992662.6230 10241.4739379883 5.8112 10241.4739379883 10241.4739379883 7924.54632568359 7924.55200195312 2316.92193603516 0.00335693359375 0.00341796875 0 0 0.7738 0.7738 0.9821 <error: 0.0035400390625 0.00341796875 0.00341796875 0.00335693359375 0.9821 
32768 118726.694641113 49106.7762756348 0.014984130859375 7923495.5804 20481.2118530273 5.7969 20481.2118530273 20481.2118530273 15789.9066772461 15789.9094543457 4691.30239868164 0.001678466796875 0.001708984375 0 0 0.7709 0.7709 0.9821 <error: 0.00177001953125 0.001708984375 0.001708984375 0.001678466796875 0.9821 
65536 237481.255203247 98238.054397583 0.0267486572265625 8878249.5956 40961.9345855713 5.7976 40961.9345855713 40961.9345855713 31603.7023010254 31603.703704834 9358.2308807373 0.0008392333984375 0.0008544921875 0 0 0.7715 0.7715 0.9821 <error: 0.000885009765625 0.0008544921875 0.0008544921875 0.0008392333984375 0.9821 
