#set_size_in_keys sim_num_insn sim_num_refs sim_elapsed_time sim_inst_rate sim_num_branches sim_IPB bpred_2lev.lookups bpred_2lev.updates bpred_2lev.addr_hits bpred_2lev.dir_hits bpred_2lev.misses bpred_2lev.jr_hits bpred_2lev.jr_seen bpred_2lev.jr_non_ras_hits.PP bpred_2lev.jr_non_ras_seen.PP bpred_2lev.bpred_addr_rate bpred_2lev.bpred_dir_rate bpred_2lev.bpred_jr_rate bpred_2lev.bpred_jr_non_ras_rate.PP bpred_2lev.retstack_pushes bpred_2lev.retstack_pops bpred_2lev.used_ras.PP bpred_2lev.ras_hits.PP bpred_2lev.ras_rate.PP
4096 183.880859375 50.294677734375 0.000244140625 753176.0000 23.119384765625 7.9535 23.119384765625 23.119384765625 16.999755859375 17.03076171875 6.088623046875 0.0166015625 0.016845703125 0 0 0.7353 0.7366 0.9855 <error: 0.017333984375 0.016845703125 0.016845703125 0.0166015625 0.9855 
8192 201.761840820312 56.266357421875 0.0001220703125 1652833.0000 25.108154296875 8.0357 25.108154296875 25.108154296875 18.6080322265625 18.624267578125 6.48388671875 0.008544921875 0.0087890625 0 0.0001220703125 0.7411 0.7418 0.9722 0.0000 0.0089111328125 0.0086669921875 0.0086669921875 0.008544921875 0.9859 
16384 215.359924316406 58.5425415039062 6.103515625e-05 3528457.0000 26.9371337890625 7.9949 26.9371337890625 26.9371337890625 20.0093383789062 20.0176391601562 6.91949462890625 0.004150390625 0.00421142578125 0 0 0.7428 0.7431 0.9855 <error: 0.00433349609375 0.00421142578125 0.00421142578125 0.004150390625 0.9855 
32768 234.041931152344 64.9000854492188 3.0517578125e-05 7669086.0000 29.0269775390625 8.0629 29.0269775390625 29.0269775390625 21.6361694335938 21.6404418945312 7.38653564453125 0.00213623046875 0.002197265625 0 3.0517578125e-05 0.7454 0.7455 0.9722 0.0000 0.002227783203125 0.002166748046875 0.002166748046875 0.00213623046875 0.9859 
65536 248.078170776367 67.3703460693359 3.0517578125e-05 8129025.5000 30.9106903076172 8.0256 30.9106903076172 30.9106903076172 23.0327911376953 23.0347747802734 7.87591552734375 0.00103759765625 0.0010528564453125 0 0 0.7451 0.7452 0.9855 <error: 0.0010833740234375 0.0010528564453125 0.0010528564453125 0.00103759765625 0.9855 
131072 266.934944152832 73.8187561035156 3.0517578125e-05 8746924.2500 33.0215530395508 8.0837 33.0215530395508 33.0215530395508 24.6480407714844 24.6491088867188 8.37244415283203 0.0005340576171875 0.00054931640625 0 7.62939453125e-06 0.7464 0.7465 0.9722 0.0000 0.00055694580078125 0.00054168701171875 0.00054168701171875 0.0005340576171875 0.9859 
262144 280.94783782959 76.3107261657715 3.4332275390625e-05 8183198.8889 34.9015617370605 8.0497 34.9015617370605 34.9015617370605 26.0316848754883 26.0321807861328 8.86938095092773 0.0002593994140625 0.000263214111328125 0 0 0.7459 0.7459 0.9855 <error: 0.000270843505859375 0.000263214111328125 0.000263214111328125 0.0002593994140625 0.9855 
524288 299.953508377075 82.8175010681152 3.4332275390625e-05 8736779.1667 37.0292263031006 8.1005 37.0292263031006 37.0292263031006 27.6594905853271 27.6597785949707 9.36944770812988 0.000141143798828125 0.000143051147460938 1.9073486328125e-06 3.814697265625e-06 0.7470 0.7470 0.9867 0.5000 0.000143051147460938 0.000139236450195312 0.000139236450195312 0.000139236450195312 1.0000 
1048576 313.952558517456 85.3073244094849 3.71932983398438e-05 8441105.5897 38.9080781936646 8.0691 38.9080781936646 38.9080781936646 29.0385408401489 29.0386848449707 9.86939334869385 6.77108764648438e-05 6.866455078125e-05 0 9.5367431640625e-07 0.7463 0.7463 0.9861 0.0000 6.96182250976562e-05 6.77108764648438e-05 6.77108764648438e-05 6.77108764648438e-05 1.0000 
2097152 333.006491184235 91.8147306442261 3.95774841308594e-05 8414038.9036 41.04358959198 8.1135 41.04358959198 41.04358959198 30.6755919456482 30.6756620407104 10.3679275512695 3.52859497070312e-05 3.57627868652344e-05 4.76837158203125e-07 9.5367431640625e-07 0.7474 0.7474 0.9867 0.5000 3.57627868652344e-05 3.48091125488281e-05 3.48091125488281e-05 3.48091125488281e-05 1.0000 
4194304 347.009273529053 94.3124902248383 4.10079956054688e-05 8461990.6047 42.9224216938019 8.0846 42.9224216938019 42.9224216938019 32.056259393692 32.0562951564789 10.866126537323 1.69277191162109e-05 1.71661376953125e-05 0 2.38418579101562e-07 0.7468 0.7468 0.9861 0.0000 1.74045562744141e-05 1.69277191162109e-05 1.69277191162109e-05 1.69277191162109e-05 1.0000 
