#set_size_in_keys sim_num_insn sim_num_refs sim_elapsed_time sim_inst_rate il1.accesses il1.hits il1.misses il1.replacements il1.writebacks il1.invalidations il1.miss_rate il1.repl_rate il1.wb_rate il1.inv_rate dl1.accesses dl1.hits dl1.misses dl1.replacements dl1.writebacks dl1.invalidations dl1.miss_rate dl1.repl_rate dl1.wb_rate dl1.inv_rate dl2.accesses dl2.hits dl2.misses dl2.replacements dl2.writebacks dl2.invalidations dl2.miss_rate dl2.repl_rate dl2.wb_rate dl2.inv_rate itlb.accesses itlb.hits itlb.misses itlb.replacements itlb.writebacks itlb.invalidations itlb.miss_rate itlb.repl_rate itlb.wb_rate itlb.inv_rate dtlb.accesses dtlb.hits dtlb.misses dtlb.replacements dtlb.writebacks dtlb.invalidations dtlb.miss_rate dtlb.repl_rate dtlb.wb_rate dtlb.inv_rate ld_text_base ld_text_size ld_data_base ld_data_size ld_stack_base ld_stack_size ld_prog_entry ld_environ_base ld_target_big_endian mem.page_count mem.page_mem mem.ptab_misses mem.ptab_accesses mem.ptab_miss_rate
4096 210.08935546875 55.9228515625 0.001220703125 172105.2000 210.08935546875 209.94873046875 0.140625 0.078125 0 0 0.0007 0.0004 0.0000 0.0000 59.9423828125 58.250244140625 1.692138671875 1.629638671875 1.23046875 0 0.0282 0.0272 0.0205 0.0000 3.063232421875 2.584228515625 0.47900390625 0 0 0 0.1564 0.0000 0.0000 0.0000 210.08935546875 210.085693359375 0.003662109375 0 0 0 0.0000 0.0000 0.0000 0.0000 59.9423828125 59.9384765625 0.00390625 0 0 0 0.0001 0.0000 0.0000 0.0000 0x00400000 23.69921875 0x10000000 2.0166015625 0x7fffc000 4 0x00400140 0x7fff8000 0 0.009765625 160k 0.009765625 1105.78564453125 0.0000 
8192 213.835205078125 57.635498046875 0.0009765625 218967.2500 213.835205078125 213.76220703125 0.072998046875 0.041748046875 0 0 0.0003 0.0002 0.0000 0.0000 61.645263671875 59.913818359375 1.7314453125 1.7001953125 1.1917724609375 0 0.0281 0.0276 0.0193 0.0000 2.9962158203125 2.6295166015625 0.36669921875 0 0 0 0.1224 0.0000 0.0000 0.0000 213.835205078125 213.833251953125 0.001953125 0 0 0 0.0000 0.0000 0.0000 0.0000 61.645263671875 61.642333984375 0.0029296875 0 0 0 0.0000 0.0000 0.0000 0.0000 0x00400000 11.853515625 0x10000000 1.00830078125 0x7fffc000 2 0x00400140 0x7fff8000 0 0.005859375 192k 0.005859375 1051.42651367188 0.0000 
16384 241.726928710938 64.1952514648438 0.00079345703125 304650.3077 241.726928710938 241.692565917969 0.03436279296875 0.01873779296875 0 0 0.0001 0.0001 0.0000 0.0000 68.2001342773438 66.0924682617188 2.107666015625 2.092041015625 1.4244384765625 0 0.0309 0.0307 0.0209 0.0000 3.56646728515625 3.25982666015625 0.306640625 0 0 0 0.0860 0.0000 0.0000 0.0000 241.726928710938 241.725952148438 0.0009765625 0 0 0 0.0000 0.0000 0.0000 0.0000 68.2001342773438 68.1976928710938 0.00244140625 0 0 0 0.0000 0.0000 0.0000 0.0000 0x00400000 5.927734375 0x10000000 0.504150390625 0x7fffc000 1 0x00400140 0x7fff8000 0 0.00390625 256k 0.00390625 1139.71142578125 0.0000 
32768 246.029327392578 66.2407836914062 0.000762939453125 322475.5600 246.029327392578 246.010986328125 0.018341064453125 0.010528564453125 0 0 0.0001 0.0000 0.0000 0.0000 70.2432250976562 68.0543518066406 2.18887329101562 2.18106079101562 1.41360473632812 0 0.0312 0.0311 0.0201 0.0000 3.62081909179688 3.34158325195312 0.27923583984375 0 0 0 0.0771 0.0000 0.0000 0.0000 246.029327392578 246.028839111328 0.00048828125 0 0 0 0.0000 0.0000 0.0000 0.0000 70.2432250976562 70.2410278320312 0.002197265625 0 0 0 0.0000 0.0000 0.0000 0.0000 0x00400000 2.96435546875 0x10000000 0.2520751953125 0x7fffc000 0.5 0x00400140 0x7fff8000 0 0.0029296875 384k 0.0029296875 1142.80841064453 0.0000 
65536 274.459671020508 73.0252532958984 0.0006561279296875 418302.0698 274.459671020508 274.450790405273 0.008880615234375 0.004974365234375 0 0 0.0000 0.0000 0.0000 0.0000 77.0264739990234 74.4385375976562 2.58793640136719 2.58403015136719 1.66172790527344 0 0.0336 0.0335 0.0216 0.0000 4.258544921875 3.99418640136719 0.264358520507812 0 0 0 0.0621 0.0000 0.0000 0.0000 274.459671020508 274.459426879883 0.000244140625 0 0 0 0.0000 0.0000 0.0000 0.0000 77.0264739990234 77.0233917236328 0.003082275390625 0.001129150390625 0.000762939453125 0 0.0000 0.0000 0.0000 0.0000 0x00400000 1.482177734375 0x10000000 0.12603759765625 0x7fffc000 0.25 0x00400140 0x7fff8000 0 0.00244140625 640k 0.00244140625 1260.99395751953 0.0000 
131072 278.941925048828 75.1707458496094 0.00057220458984375 487486.3467 278.941925048828 278.937339782715 0.00458526611328125 0.00263214111328125 0 0 0.0000 0.0000 0.0000 0.0000 79.1713562011719 76.4924545288086 2.67890167236328 2.67694854736328 1.6572265625 0 0.0338 0.0338 0.0209 0.0000 4.34071350097656 4.08340454101562 0.257308959960938 0 0 0 0.0593 0.0000 0.0000 0.0000 278.941925048828 278.941802978516 0.0001220703125 0 0 0 0.0000 0.0000 0.0000 0.0000 79.1713562011719 79.1528472900391 0.0185089111328125 0.0175323486328125 0.0101852416992188 0 0.0002 0.0002 0.0001 0.0000 0x00400000 0.7410888671875 0x10000000 0.063018798828125 0x7fffc000 0.125 0x00400140 0x7fff8000 0 0.002197265625 1152k 0.002197265625 1278.66157531738 0.0000 
262144 295.448440551758 79.6613960266113 0.0004119873046875 717129.9630 295.448440551758 295.446159362793 0.00228118896484375 0.00130462646484375 0 0 0.0000 0.0000 0.0000 0.0000 83.6617012023926 80.7345695495605 2.92713165283203 2.92615509033203 1.78101348876953 0 0.0350 0.0350 0.0213 0.0000 4.71042633056641 4.31702041625977 0.393405914306641 0.143405914306641 0.141704559326172 0 0.0835 0.0304 0.0301 0.0000 295.448440551758 295.448379516602 6.103515625e-05 0 0 0 0.0000 0.0000 0.0000 0.0000 83.6617012023926 83.6410484313965 0.0206527709960938 0.0201644897460938 0.0115585327148438 0 0.0002 0.0002 0.0001 0.0000 0x00400000 0.37054443359375 0x10000000 0.0315093994140625 0x7fffc000 0.0625 0x00400140 0x7fff8000 0 0.0020751953125 2176k 0.0020751953125 1351.39274597168 0.0000 
524288 426.007177352905 116.222375869751 0.00028228759765625 1509124.6689 426.007177352905 426.005485534668 0.00169181823730469 0.00120353698730469 0 0 0.0000 0.0000 0.0000 0.0000 120.222528457642 116.887899398804 3.33462905883789 3.33414077758789 2.03547668457031 0 0.0277 0.0277 0.0169 0.0000 5.37179756164551 4.62502670288086 0.746770858764648 0.621770858764648 0.557201385498047 0 0.1390 0.1157 0.1037 0.0000 426.007177352905 426.007144927979 3.24249267578125e-05 0 0 0 0.0000 0.0000 0.0000 0.0000 120.222528457642 120.200159072876 0.022369384765625 0.022125244140625 0.0125484466552734 0 0.0002 0.0002 0.0001 0.0000 0x00400000 0.185272216796875 0x10000000 0.0157546997070312 0x7fffc000 0.03125 0x00400140 0x7fff8000 0 0.00202560424804688 4248k 0.0025177001953125 1945.61155700684 0.0000 
1048576 451.238023757935 124.11842918396 0.000210762023925781 2140983.5385 451.238023757935 451.237133979797 0.000889778137207031 0.000645637512207031 0 0 0.0000 0.0000 0.0000 0.0000 128.118505477905 124.940496444702 3.17800903320312 3.17776489257812 1.90672588348389 0 0.0248 0.0248 0.0149 0.0000 5.08562469482422 4.3421516418457 0.743473052978516 0.680973052978516 0.586067199707031 0 0.1462 0.1339 0.1152 0.0000 451.238023757935 451.238007545471 1.62124633789062e-05 0 0 0 0.0000 0.0000 0.0000 0.0000 128.118505477905 128.096057891846 0.0224475860595703 0.0223255157470703 0.0125904083251953 0 0.0002 0.0002 0.0001 0.0000 0x00400000 0.0926361083984375 0x10000000 0.00787734985351562 0x7fffc000 0.015625 0x00400140 0x7fff8000 0 0.00198936462402344 8344k 0.0760135650634766 2061.75800132751 0.0000 
2097152 493.870913028717 135.035810470581 0.000183582305908203 2690187.9818 493.870913028717 493.870476722717 0.000436305999755859 0.000314235687255859 0 0 0.0000 0.0000 0.0000 0.0000 139.035848617554 135.703737735748 3.33211088180542 3.33198881149292 2.03402376174927 0 0.0240 0.0240 0.0146 0.0000 5.36657094955444 4.62477111816406 0.741799831390381 0.710549831390381 0.600528240203857 0 0.1382 0.1324 0.1119 0.0000 493.870913028717 493.870904922485 8.10623168945312e-06 0 0 0 0.0000 0.0000 0.0000 0.0000 139.035848617554 139.004876613617 0.0309720039367676 0.0309109687805176 0.0126132965087891 0 0.0002 0.0002 0.0001 0.0000 0x00400000 0.0463180541992188 0x10000000 0.00393867492675781 0x7fffc000 0.0078125 0x00400140 0x7fff8000 0 0.00197410583496094 16560k 0.0403575897216797 2253.83979701996 0.0000 
4194304 521.372492551804 144.085592985153 0.000170707702636719 3054182.5852 521.372492551804 521.372270107269 0.000222444534301758 0.000161409378051758 0 0 0.0000 0.0000 0.0000 0.0000 148.08561205864 144.908005475998 3.1776065826416 3.17754554748535 1.90679907798767 0 0.0215 0.0215 0.0129 0.0000 5.08462810516357 4.34333968162537 0.741288423538208 0.725663423538208 0.608075380325317 0 0.1458 0.1427 0.1196 0.0000 521.372492551804 521.372488498688 4.05311584472656e-06 0 0 0 0.0000 0.0000 0.0000 0.0000 148.08561205864 147.974153757095 0.111458301544189 0.111427783966064 0.0126211643218994 0 0.0008 0.0008 0.0001 0.0000 0x00400000 0.0231590270996094 0x10000000 0.00196933746337891 0x7fffc000 0.00390625 0x00400140 0x7fff8000 0 0.00196647644042969 32992k 0.0204730033874512 2381.80341815948 0.0000 
