#set_size_in_keys sim_num_insn sim_num_refs sim_elapsed_time sim_inst_rate sim_num_branches sim_IPB bpred_2lev.lookups bpred_2lev.updates bpred_2lev.addr_hits bpred_2lev.dir_hits bpred_2lev.misses bpred_2lev.jr_hits bpred_2lev.jr_seen bpred_2lev.jr_non_ras_hits.PP bpred_2lev.jr_non_ras_seen.PP bpred_2lev.bpred_addr_rate bpred_2lev.bpred_dir_rate bpred_2lev.bpred_jr_rate bpred_2lev.bpred_jr_non_ras_rate.PP bpred_2lev.retstack_pushes bpred_2lev.retstack_pops bpred_2lev.used_ras.PP bpred_2lev.ras_hits.PP bpred_2lev.ras_rate.PP
4096 183.819091796875 50.27978515625 0.000244140625 752923.0000 23.105712890625 7.9556 23.105712890625 23.105712890625 16.50390625 16.5341796875 6.571533203125 0.014404296875 0.014404296875 0 0 0.7143 0.7156 1.0000 <error: 0.014892578125 0.014404296875 0.014404296875 0.014404296875 1.0000 
8192 201.747192382812 56.2642822265625 0.0001220703125 1652713.0000 25.106201171875 8.0358 25.106201171875 25.106201171875 18.01953125 18.03564453125 7.070556640625 0.0084228515625 0.0086669921875 0 0.0001220703125 0.7177 0.7184 0.9718 0.0000 0.0087890625 0.008544921875 0.008544921875 0.0084228515625 0.9857 
16384 215.352416992188 58.54150390625 6.103515625e-05 3528334.0000 26.9361572265625 7.9949 26.9361572265625 26.9361572265625 19.353271484375 19.3613891601562 7.57476806640625 0.00408935546875 0.004150390625 0 0 0.7185 0.7188 0.9853 <error: 0.0042724609375 0.004150390625 0.004150390625 0.00408935546875 0.9853 
32768 234.038024902344 64.8995666503906 3.0517578125e-05 7668958.0000 29.0264892578125 8.0629 29.0264892578125 29.0264892578125 20.9303283691406 20.9345703125 8.0919189453125 0.002105712890625 0.002166748046875 0 3.0517578125e-05 0.7211 0.7212 0.9718 0.0000 0.002197265625 0.00213623046875 0.00213623046875 0.002105712890625 0.9857 
65536 248.076171875 67.3700866699219 1.52587890625e-05 16257920.0000 30.9104461669922 8.0256 30.9104461669922 30.9104461669922 22.2802734375 22.2822875976562 8.62815856933594 0.0010223388671875 0.00103759765625 0 0 0.7208 0.7209 0.9853 <error: 0.001068115234375 0.00103759765625 0.00103759765625 0.0010223388671875 0.9853 
131072 266.933906555176 73.8186264038086 3.0517578125e-05 8746890.2500 33.0214309692383 8.0837 33.0214309692383 33.0214309692383 23.8501892089844 23.8512954711914 9.17013549804688 0.00052642822265625 0.00054168701171875 0 7.62939453125e-06 0.7223 0.7223 0.9718 0.0000 0.00054931640625 0.0005340576171875 0.0005340576171875 0.00052642822265625 0.9857 
262144 280.947303771973 76.310661315918 3.4332275390625e-05 8183183.3333 34.901496887207 8.0497 34.901496887207 34.901496887207 25.1879463195801 25.1884460449219 9.71305084228516 0.000255584716796875 0.0002593994140625 0 0 0.7217 0.7217 0.9853 <error: 0.00026702880859375 0.0002593994140625 0.0002593994140625 0.000255584716796875 0.9853 
524288 299.929096221924 82.7998027801514 3.4332275390625e-05 8736068.1111 37.0276508331299 8.1001 37.0276508331299 37.0276508331299 26.7721729278564 26.7724380493164 10.2552127838135 0.000131607055664062 0.000135421752929688 0 1.9073486328125e-06 0.7230 0.7230 0.9718 0.0000 0.0001373291015625 0.000133514404296875 0.000133514404296875 0.000131607055664062 0.9857 
1048576 313.951940536499 85.3073081970215 3.71932983398438e-05 8441088.9744 38.9080276489258 8.0691 38.9080276489258 38.9080276489258 28.1083793640137 28.1085233688354 10.7995042800903 6.67572021484375e-05 6.77108764648438e-05 0 9.5367431640625e-07 0.7224 0.7224 0.9859 0.0000 6.866455078125e-05 6.67572021484375e-05 6.67572021484375e-05 6.67572021484375e-05 1.0000 
2097152 333.00587272644 91.8147225379944 7.48634338378906e-05 4448177.9108 41.0435452461243 8.1135 41.0435452461243 41.0435452461243 29.6991944313049 29.6992678642273 11.344277381897 3.48091125488281e-05 3.52859497070312e-05 4.76837158203125e-07 9.5367431640625e-07 0.7236 0.7236 0.9865 0.5000 3.52859497070312e-05 3.4332275390625e-05 3.4332275390625e-05 3.4332275390625e-05 1.0000 
4194304 347.00865650177 94.3124861717224 4.10079956054688e-05 8461975.5581 42.9223804473877 8.0846 42.9223804473877 42.9223804473877 31.0345394611359 31.034574508667 11.8878059387207 1.66893005371094e-05 1.69277191162109e-05 0 2.38418579101562e-07 0.7230 0.7230 0.9859 0.0000 1.71661376953125e-05 1.66893005371094e-05 1.66893005371094e-05 1.66893005371094e-05 1.0000 
