#set_size_in_keys sim_num_insn sim_num_refs sim_elapsed_time sim_inst_rate il1.accesses il1.hits il1.misses il1.replacements il1.writebacks il1.invalidations il1.miss_rate il1.repl_rate il1.wb_rate il1.inv_rate dl1.accesses dl1.hits dl1.misses dl1.replacements dl1.writebacks dl1.invalidations dl1.miss_rate dl1.repl_rate dl1.wb_rate dl1.inv_rate dl2.accesses dl2.hits dl2.misses dl2.replacements dl2.writebacks dl2.invalidations dl2.miss_rate dl2.repl_rate dl2.wb_rate dl2.inv_rate itlb.accesses itlb.hits itlb.misses itlb.replacements itlb.writebacks itlb.invalidations itlb.miss_rate itlb.repl_rate itlb.wb_rate itlb.inv_rate dtlb.accesses dtlb.hits dtlb.misses dtlb.replacements dtlb.writebacks dtlb.invalidations dtlb.miss_rate dtlb.repl_rate dtlb.wb_rate dtlb.inv_rate ld_text_base ld_text_size ld_data_base ld_data_size ld_stack_base ld_stack_size ld_prog_entry ld_environ_base ld_target_big_endian mem.page_count mem.page_mem mem.ptab_misses mem.ptab_accesses mem.ptab_miss_rate
4096 187.051025390625 35.643310546875 0.000244140625 766161.0000 187.051025390625 186.9541015625 0.096923828125 0.047119140625 0 0 0.0005 0.0003 0.0000 0.0000 39.662841796875 35.0986328125 4.564208984375 4.501708984375 2.345703125 0 0.1151 0.1135 0.0591 0.0000 7.0068359375 6.573974609375 0.432861328125 0.02490234375 0.01708984375 0 0.0618 0.0036 0.0024 0.0000 187.051025390625 187.048583984375 0.00244140625 0 0 0 0.0000 0.0000 0.0000 0.0000 39.662841796875 39.6591796875 0.003662109375 0 0 0 0.0001 0.0000 0.0000 0.0000 0x00400000 18.0234375 0x10000000 2.0126953125 0x7fffc000 4 0x00400140 0x7fff8000 0 0.00830078125 136k 0.00830078125 939.341796875 0.0000 
8192 203.75927734375 40.1932373046875 0.0001220703125 1669196.0000 203.75927734375 203.705322265625 0.053955078125 0.0289306640625 0 0 0.0003 0.0001 0.0000 0.0000 44.2030029296875 39.134033203125 5.0689697265625 5.0377197265625 2.572265625 0 0.1147 0.1140 0.0582 0.0000 7.6951904296875 7.3511962890625 0.343994140625 0.0125732421875 0.0086669921875 0 0.0447 0.0016 0.0011 0.0000 203.75927734375 203.758056640625 0.001220703125 0 0 0 0.0000 0.0000 0.0000 0.0000 44.2030029296875 44.2001953125 0.0028076171875 0 0 0 0.0001 0.0000 0.0000 0.0000 0x00400000 9.015625 0x10000000 1.00634765625 0x7fffc000 2 0x00400140 0x7fff8000 0 0.005126953125 168k 0.005126953125 959.37255859375 0.0000 
16384 215.852722167969 40.9667358398438 6.103515625e-05 3536531.0000 215.852722167969 215.826293945312 0.02642822265625 0.0147705078125 0 0 0.0001 0.0001 0.0000 0.0000 44.9716186523438 39.91943359375 5.05218505859375 5.03656005859375 2.566650390625 0 0.1123 0.1120 0.0571 0.0000 7.645263671875 7.34893798828125 0.29632568359375 0.00811767578125 0.005859375 0 0.0388 0.0011 0.0008 0.0000 215.852722167969 215.852111816406 0.0006103515625 0 0 0 0.0000 0.0000 0.0000 0.0000 44.9716186523438 44.96923828125 0.00238037109375 0 0 0 0.0001 0.0000 0.0000 0.0000 0x00400000 4.5087890625 0x10000000 0.503173828125 0x7fffc000 1 0x00400140 0x7fff8000 0 0.0035400390625 232k 0.0035400390625 981.32470703125 0.0000 
32768 233.166656494141 45.8543395996094 6.103515625e-05 3820202.5000 233.166656494141 233.153076171875 0.013580322265625 0.00732421875 0 0 0.0001 0.0000 0.0000 0.0000 49.8567810058594 44.2793884277344 5.577392578125 5.569580078125 2.8199462890625 0 0.1119 0.1117 0.0566 0.0000 8.41091918945312 8.13729858398438 0.27362060546875 0.003814697265625 0.00274658203125 0 0.0325 0.0005 0.0003 0.0000 233.166656494141 233.166351318359 0.00030517578125 0 0 0 0.0000 0.0000 0.0000 0.0000 49.8567810058594 49.8546142578125 0.002166748046875 0 0 0 0.0000 0.0000 0.0000 0.0000 0x00400000 2.2548828125 0x10000000 0.2515869140625 0x7fffc000 0.5 0x00400140 0x7fff8000 0 0.00274658203125 360k 0.00274658203125 1046.36840820312 0.0000 
65536 245.539398193359 46.7909088134766 7.62939453125e-05 3218334.0000 245.539398193359 245.533020019531 0.006378173828125 0.003509521484375 0 0 0.0000 0.0000 0.0000 0.0000 50.7921295166016 45.2046356201172 5.58749389648438 5.58358764648438 2.82307434082031 0 0.1100 0.1099 0.0556 0.0000 8.41694641113281 8.155517578125 0.261428833007812 0.0019073486328125 0.001373291015625 0 0.0311 0.0002 0.0002 0.0000 245.539398193359 245.539245605469 0.000152587890625 0 0 0 0.0000 0.0000 0.0000 0.0000 50.7921295166016 50.7889099121094 0.0032196044921875 0.0012664794921875 0.0007171630859375 0 0.0001 0.0000 0.0000 0.0000 0x00400000 1.12744140625 0x10000000 0.12579345703125 0x7fffc000 0.25 0x00400140 0x7fff8000 0 0.002349853515625 616k 0.002349853515625 1090.73596191406 0.0000 
131072 262.986450195312 51.7624740600586 6.866455078125e-05 3830017.7778 262.986450195312 262.983055114746 0.00339508056640625 0.0018310546875 0 0 0.0000 0.0000 0.0000 0.0000 55.7630844116211 49.6547698974609 6.10831451416016 6.10636138916016 3.07899475097656 0 0.1095 0.1095 0.0552 0.0000 9.19070434570312 8.93479919433594 0.255905151367188 0.00095367431640625 0.0006866455078125 0 0.0278 0.0001 0.0001 0.0000 262.986450195312 262.986373901367 7.62939453125e-05 0 0 0 0.0000 0.0000 0.0000 0.0000 55.7630844116211 55.7273101806641 0.0357742309570312 0.0347976684570312 0.0182266235351562 0 0.0006 0.0006 0.0003 0.0000 0x00400000 0.563720703125 0x10000000 0.062896728515625 0x7fffc000 0.125 0x00400140 0x7fff8000 0 0.0021514892578125 1128k 0.0021514892578125 1166.9690246582 0.0000 
262144 275.464141845703 52.7492141723633 7.2479248046875e-05 3800593.2632 275.464141845703 275.462547302246 0.00159454345703125 0.00087738037109375 0 0 0.0000 0.0000 0.0000 0.0000 56.7495193481445 50.6180152893066 6.13150405883789 6.13052749633789 3.08638000488281 0 0.1080 0.1080 0.0544 0.0000 9.21947860717773 8.96662139892578 0.252857208251953 0.000476837158203125 0.00034332275390625 0 0.0274 0.0001 0.0000 0.0000 275.464141845703 275.46410369873 3.814697265625e-05 0 0 0 0.0000 0.0000 0.0000 0.0000 56.7495193481445 56.71337890625 0.0361404418945312 0.0356521606445312 0.0183944702148438 0 0.0006 0.0006 0.0003 0.0000 0x00400000 0.2818603515625 0x10000000 0.0314483642578125 0x7fffc000 0.0625 0x00400140 0x7fff8000 0 0.00205230712890625 2152k 0.00205230712890625 1217.10413360596 0.0000 
524288 292.95205116272 57.7419261932373 7.82012939453125e-05 3746127.9268 292.95205116272 292.951202392578 0.000848770141601562 0.000457763671875 0 0 0.0000 0.0000 0.0000 0.0000 61.7420787811279 55.0936050415039 6.64847373962402 6.64798545837402 3.34096145629883 0 0.1077 0.1077 0.0541 0.0000 9.99028396606445 9.61334419250488 0.37693977355957 0.129133224487305 0.0721836090087891 0 0.0377 0.0129 0.0072 0.0000 292.95205116272 292.952032089233 1.9073486328125e-05 0 0 0 0.0000 0.0000 0.0000 0.0000 61.7420787811279 61.702018737793 0.0400600433349609 0.0398159027099609 0.0204429626464844 0 0.0006 0.0006 0.0003 0.0000 0x00400000 0.14093017578125 0x10000000 0.0157241821289062 0x7fffc000 0.03125 0x00400140 0x7fff8000 0 0.00200271606445312 4200k 0.00200271606445312 1296.16662597656 0.0000 
1048576 305.461853981018 58.7483701705933 8.29696655273438e-05 3681608.8391 305.461853981018 305.461405754089 0.000448226928710938 0.000229835510253906 0 0 0.0000 0.0000 0.0000 0.0000 62.7484464645386 56.0740842819214 6.67436218261719 6.67411804199219 3.35001754760742 0 0.1064 0.1064 0.0534 0.0000 10.0248279571533 5.43147754669189 4.59335041046143 4.46835041046143 2.58387088775635 0 0.4582 0.4457 0.2577 0.0000 305.461853981018 305.461844444275 9.5367431640625e-06 0 0 0 0.0000 0.0000 0.0000 0.0000 62.7484464645386 62.7083826065063 0.0400638580322266 0.0399417877197266 0.0204887390136719 0 0.0006 0.0006 0.0003 0.0000 0x00400000 0.070465087890625 0x10000000 0.00786209106445312 0x7fffc000 0.015625 0x00400140 0x7fff8000 0 0.001983642578125 8320k 0.059962272644043 1347.78144073486 0.0000 
2097152 322.956877708435 63.7448964118958 8.7738037109375e-05 3680922.0761 322.956877708435 322.956649780273 0.000227928161621094 0.000118732452392578 0 0 0.0000 0.0000 0.0000 0.0000 67.7449345588684 60.5514159202576 7.19351863861084 7.19339656829834 3.60619878768921 0 0.1062 0.1062 0.0532 0.0000 10.7999453544617 5.21400785446167 5.5859375 5.5234375 2.81480550765991 0 0.5172 0.5114 0.2606 0.0000 322.956877708435 322.956872940063 4.76837158203125e-06 0 0 0 0.0000 0.0000 0.0000 0.0000 67.7449345588684 67.7009625434875 0.0439720153808594 0.0439109802246094 0.0224647521972656 0 0.0006 0.0006 0.0003 0.0000 0x00400000 0.0352325439453125 0x10000000 0.00393104553222656 0x7fffc000 0.0078125 0x00400140 0x7fff8000 0 0.00197124481201172 16536k 0.032808780670166 1427.53594589233 0.0000 
4194304 335.454170465469 64.7431671619415 9.03606414794922e-05 3712392.5303 335.454170465469 335.454058408737 0.000112056732177734 5.74588775634766e-05 0 0 0.0000 0.0000 0.0000 0.0000 68.7431862354279 61.5278747081757 7.2153115272522 7.21525049209595 3.61312294006348 0 0.1050 0.1050 0.0526 0.0000 10.8285465240479 5.21694135665894 5.61160516738892 5.58035516738892 2.85577464103699 0 0.5182 0.5153 0.2637 0.0000 335.454170465469 335.454168081284 2.38418579101562e-06 0 0 0 0.0000 0.0000 0.0000 0.0000 68.7431862354279 68.6992135047913 0.0439727306365967 0.0439422130584717 0.0224757194519043 0 0.0006 0.0006 0.0003 0.0000 0x00400000 0.0176162719726562 0x10000000 0.00196552276611328 0x7fffc000 0.00390625 0x00400140 0x7fff8000 0 0.00196504592895508 32968k 0.0178377628326416 1479.41233730316 0.0000 
