#set_size_in_keys sim_num_insn sim_num_refs sim_elapsed_time sim_inst_rate sim_num_branches sim_IPB bpred_bimod.lookups bpred_bimod.updates bpred_bimod.addr_hits bpred_bimod.dir_hits bpred_bimod.misses bpred_bimod.jr_hits bpred_bimod.jr_seen bpred_bimod.jr_non_ras_hits.PP bpred_bimod.jr_non_ras_seen.PP bpred_bimod.bpred_addr_rate bpred_bimod.bpred_dir_rate bpred_bimod.bpred_jr_rate bpred_bimod.bpred_jr_non_ras_rate.PP bpred_bimod.retstack_pushes bpred_bimod.retstack_pops bpred_bimod.used_ras.PP bpred_bimod.ras_hits.PP bpred_bimod.ras_rate.PP
4096 187.051025390625 35.643310546875 0.000244140625 766161.0000 26.708740234375 7.0034 26.708740234375 26.708740234375 20.343994140625 20.367431640625 6.34130859375 0.014404296875 0.014404296875 0 0 0.7617 0.7626 1.0000 <error: 0.014892578125 0.014404296875 0.014404296875 0.014404296875 1.0000 
8192 203.75927734375 40.1932373046875 0.0001220703125 1669196.0000 28.7344970703125 7.0911 28.7344970703125 28.7344970703125 21.901611328125 21.9146728515625 6.81982421875 0.0084228515625 0.0086669921875 0 0.0001220703125 0.7622 0.7627 0.9718 0.0000 0.0087890625 0.008544921875 0.008544921875 0.0084228515625 0.9857 
16384 215.852722167969 40.9667358398438 6.103515625e-05 3536531.0000 30.5462036132812 7.0664 30.5462036132812 30.5462036132812 23.1874389648438 23.193603515625 7.35260009765625 0.00408935546875 0.004150390625 0 0 0.7591 0.7593 0.9853 <error: 0.0042724609375 0.004150390625 0.004150390625 0.00408935546875 0.9853 
32768 233.166656494141 45.8543395996094 3.0517578125e-05 7640405.0000 32.6541442871094 7.1405 32.6541442871094 32.6541442871094 24.8158264160156 24.8190612792969 7.8350830078125 0.002105712890625 0.002166748046875 0 3.0517578125e-05 0.7600 0.7601 0.9718 0.0000 0.002197265625 0.00213623046875 0.00213623046875 0.002105712890625 0.9857 
65536 245.539398193359 46.7909088134766 3.0517578125e-05 8045835.0000 34.5154266357422 7.1139 34.5154266357422 34.5154266357422 26.1890106201172 26.1905364990234 8.32489013671875 0.0010223388671875 0.00103759765625 0 0 0.7588 0.7588 0.9853 <error: 0.001068115234375 0.00103759765625 0.00103759765625 0.0010223388671875 0.9853 
131072 262.986450195312 51.7624740600586 3.0517578125e-05 8617540.0000 36.6312942504883 7.1793 36.6312942504883 36.6312942504883 27.8021011352539 27.8029174804688 8.82837677001953 0.00052642822265625 0.00054168701171875 0 7.62939453125e-06 0.7590 0.7590 0.9718 0.0000 0.00054931640625 0.0005340576171875 0.0005340576171875 0.00052642822265625 0.9857 
262144 275.464141845703 52.7492141723633 3.4332275390625e-05 8023474.6667 38.5020904541016 7.1545 38.5020904541016 38.5020904541016 29.1742973327637 29.1746826171875 9.32740783691406 0.000255584716796875 0.0002593994140625 0 0 0.7577 0.7577 0.9853 <error: 0.00026702880859375 0.0002593994140625 0.0002593994140625 0.000255584716796875 0.9853 
524288 292.95205116272 57.7419261932373 3.4332275390625e-05 8532846.9444 40.6267280578613 7.2108 40.6267280578613 40.6267280578613 30.7964782714844 30.7966823577881 9.83004570007324 0.000131607055664062 0.000135421752929688 0 1.9073486328125e-06 0.7580 0.7580 0.9718 0.0000 0.0001373291015625 0.000133514404296875 0.000133514404296875 0.000131607055664062 0.9857 
1048576 305.461853981018 58.7483701705933 3.62396240234375e-05 8428946.5526 42.5012378692627 7.1871 42.5012378692627 42.5012378692627 32.1706161499023 32.1707229614258 10.3305149078369 6.67572021484375e-05 6.77108764648438e-05 0 9.5367431640625e-07 0.7569 0.7569 0.9859 0.0000 6.866455078125e-05 6.67572021484375e-05 6.67572021484375e-05 6.67572021484375e-05 1.0000 
2097152 322.956877708435 63.7448964118958 3.814697265625e-05 8466120.7750 44.6264071464539 7.2369 44.6264071464539 44.6264071464539 33.792763710022 33.7928175926208 10.833589553833 3.48091125488281e-05 3.52859497070312e-05 4.76837158203125e-07 9.5367431640625e-07 0.7572 0.7572 0.9865 0.5000 3.52859497070312e-05 3.4332275390625e-05 3.4332275390625e-05 3.4332275390625e-05 1.0000 
4194304 335.454170465469 64.7431671619415 3.93390655517578e-05 8527253.1455 46.5012445449829 7.2139 46.5012445449829 46.5012445449829 35.1699960231781 35.170022726059 11.331221818924 1.66893005371094e-05 1.69277191162109e-05 0 2.38418579101562e-07 0.7563 0.7563 0.9859 0.0000 1.71661376953125e-05 1.66893005371094e-05 1.66893005371094e-05 1.66893005371094e-05 1.0000 
