#set_size_in_keys sim_num_insn sim_num_refs sim_elapsed_time sim_inst_rate sim_num_branches sim_IPB bpred_bimod.lookups bpred_bimod.updates bpred_bimod.addr_hits bpred_bimod.dir_hits bpred_bimod.misses bpred_bimod.jr_hits bpred_bimod.jr_seen bpred_bimod.jr_non_ras_hits.PP bpred_bimod.jr_non_ras_seen.PP bpred_bimod.bpred_addr_rate bpred_bimod.bpred_dir_rate bpred_bimod.bpred_jr_rate bpred_bimod.bpred_jr_non_ras_rate.PP bpred_bimod.retstack_pushes bpred_bimod.retstack_pops bpred_bimod.used_ras.PP bpred_bimod.ras_hits.PP bpred_bimod.ras_rate.PP
4096 189.5185546875 55.93798828125 0.000244140625 776268.0000 23.119384765625 8.1974 23.119384765625 23.119384765625 16.904296875 16.93359375 6.185791015625 0.0166015625 0.016845703125 0 0 0.7312 0.7324 0.9855 <error: 0.017333984375 0.016845703125 0.016845703125 0.0166015625 0.9855 
8192 207.87744140625 62.3851318359375 0.0001220703125 1702932.0000 25.108154296875 8.2793 25.108154296875 25.108154296875 18.4366455078125 18.4520263671875 6.6561279296875 0.008544921875 0.0087890625 0 0.0001220703125 0.7343 0.7349 0.9722 0.0000 0.0089111328125 0.0086669921875 0.0086669921875 0.008544921875 0.9859 
16384 221.975646972656 65.159912109375 6.103515625e-05 3636849.0000 26.9371337890625 8.2405 26.9371337890625 26.9371337890625 19.7947998046875 19.8020629882812 7.13507080078125 0.004150390625 0.00421142578125 0 0 0.7349 0.7351 0.9855 <error: 0.00433349609375 0.00421142578125 0.00421142578125 0.004150390625 0.9855 
32768 241.149475097656 72.008544921875 3.0517578125e-05 7901986.0000 29.0269775390625 8.3078 29.0269775390625 29.0269775390625 21.3839416503906 21.3878173828125 7.63916015625 0.00213623046875 0.002197265625 0 3.0517578125e-05 0.7367 0.7368 0.9722 0.0000 0.002227783203125 0.002166748046875 0.002166748046875 0.00213623046875 0.9859 
65536 255.694488525391 74.9871368408203 3.0517578125e-05 8378597.0000 30.9106903076172 8.2720 30.9106903076172 30.9106903076172 22.7833557128906 22.7851867675781 8.12550354003906 0.00103759765625 0.0010528564453125 0 0 0.7371 0.7371 0.9855 <error: 0.0010833740234375 0.0010528564453125 0.0010528564453125 0.00103759765625 0.9855 
131072 275.044746398926 81.9288177490234 3.0517578125e-05 9012666.2500 33.0215530395508 8.3292 33.0215530395508 33.0215530395508 24.3962554931641 24.3972244262695 8.62432861328125 0.0005340576171875 0.00054931640625 0 7.62939453125e-06 0.7388 0.7388 0.9722 0.0000 0.00055694580078125 0.00054168701171875 0.00054168701171875 0.0005340576171875 0.9859 
262144 289.559871673584 84.9228935241699 3.0517578125e-05 9488297.8750 34.9015617370605 8.2965 34.9015617370605 34.9015617370605 25.777271270752 25.7777366638184 9.12382507324219 0.0002593994140625 0.000263214111328125 0 0 0.7386 0.7386 0.9855 <error: 0.000270843505859375 0.000263214111328125 0.000263214111328125 0.0002593994140625 0.9855 
524288 409.396152496338 119.510377883911 4.38690185546875e-05 9332238.6957 54.138801574707 7.5620 54.138801574707 54.138801574707 42.3334999084473 42.3338603973389 11.8049411773682 1.00019073486328 1.00019264221191 1.9073486328125e-06 3.814697265625e-06 0.7819 0.7820 1.0000 0.5000 1.00019264221191 1.00018882751465 1.00018882751465 1.00018882751465 1.0000 
1048576 446.144903182983 129.928642272949 4.86373901367188e-05 9172879.1765 59.9504985809326 7.4419 59.9504985809326 59.9504985809326 47.5359468460083 47.5361261367798 12.4143724441528 1.00009536743164 1.00009632110596 9.5367431640625e-07 1.9073486328125e-06 0.7929 0.7929 1.0000 0.5000 1.00009632110596 1.00009441375732 1.00009441375732 1.00009441375732 1.0000 
2097152 476.097208976746 138.956603527069 5.24520874023438e-05 9076801.9455 63.9120826721191 7.4493 63.9120826721191 63.9120826721191 50.4979596138 50.4980506896973 13.4140319824219 1.00004768371582 1.00004816055298 4.76837158203125e-07 9.5367431640625e-07 0.7901 0.7901 1.0000 0.5000 1.00004816055298 1.00004720687866 1.00004720687866 1.00004720687866 1.0000 
4194304 513.721685647964 151.099605798721 5.60283660888672e-05 9168957.1106 68.1821520328522 7.5345 68.1821520328522 68.1821520328522 53.9035952091217 53.9036409854889 14.2785110473633 1.00002384185791 1.00002408027649 2.38418579101562e-07 4.76837158203125e-07 0.7906 0.7906 1.0000 0.5000 1.00002408027649 1.00002360343933 1.00002360343933 1.00002360343933 1.0000 
