#set_size_in_keys sim_num_insn sim_num_refs sim_elapsed_time sim_inst_rate il1.accesses il1.hits il1.misses il1.replacements il1.writebacks il1.invalidations il1.miss_rate il1.repl_rate il1.wb_rate il1.inv_rate dl1.accesses dl1.hits dl1.misses dl1.replacements dl1.writebacks dl1.invalidations dl1.miss_rate dl1.repl_rate dl1.wb_rate dl1.inv_rate dl2.accesses dl2.hits dl2.misses dl2.replacements dl2.writebacks dl2.invalidations dl2.miss_rate dl2.repl_rate dl2.wb_rate dl2.inv_rate itlb.accesses itlb.hits itlb.misses itlb.replacements itlb.writebacks itlb.invalidations itlb.miss_rate itlb.repl_rate itlb.wb_rate itlb.inv_rate dtlb.accesses dtlb.hits dtlb.misses dtlb.replacements dtlb.writebacks dtlb.invalidations dtlb.miss_rate dtlb.repl_rate dtlb.wb_rate dtlb.inv_rate ld_text_base ld_text_size ld_data_base ld_data_size ld_stack_base ld_stack_size ld_prog_entry ld_environ_base ld_target_big_endian mem.page_count mem.page_mem mem.ptab_misses mem.ptab_accesses mem.ptab_miss_rate
4096 148.613037109375 45.908935546875 0.003662109375 40581.2667 148.613037109375 148.506591796875 0.1064453125 0.0439453125 0 0 0.0007 0.0003 0.0000 0.0000 45.926025390625 45.362548828125 0.5634765625 0.5009765625 0.465087890625 0 0.0123 0.0109 0.0101 0.0000 1.135009765625 0.800048828125 0.3349609375 0 0 0 0.2951 0.0000 0.0000 0.0000 148.613037109375 148.611328125 0.001708984375 0 0 0 0.0000 0.0000 0.0000 0.0000 45.926025390625 45.92333984375 0.002685546875 0 0 0 0.0001 0.0000 0.0000 0.0000 0x00400000 6.8125 0x10000000 1 0x7fffc000 4 0x00400140 0x7fff8000 0 0.00439453125 72k 0.00439453125 728.46044921875 0.0000 
8192 156.69873046875 47.126708984375 0.0025634765625 61127.4286 156.69873046875 156.645385742188 0.0533447265625 0.0220947265625 0 0 0.0003 0.0001 0.0000 0.0000 47.13525390625 46.46923828125 0.666015625 0.634765625 0.5787353515625 0 0.0141 0.0135 0.0123 0.0000 1.298095703125 1.0679931640625 0.2301025390625 0 0 0 0.1773 0.0000 0.0000 0.0000 156.69873046875 156.697875976562 0.0008544921875 0 0 0 0.0000 0.0000 0.0000 0.0000 47.13525390625 47.1334228515625 0.0018310546875 0 0 0 0.0000 0.0000 0.0000 0.0000 0x00400000 3.41015625 0x10000000 0.5 0x7fffc000 2 0x00400140 0x7fff8000 0 0.002685546875 88k 0.002685546875 742.1669921875 0.0000 
16384 163.241088867188 48.421142578125 0.001953125 83579.4375 163.241088867188 163.214660644531 0.02642822265625 0.01080322265625 0 0 0.0002 0.0001 0.0000 0.0000 48.4254150390625 47.6712646484375 0.754150390625 0.738525390625 0.70318603515625 0 0.0156 0.0153 0.0145 0.0000 1.4837646484375 1.306884765625 0.1768798828125 0 0 0 0.1192 0.0000 0.0000 0.0000 163.241088867188 163.240661621094 0.00042724609375 0 0 0 0.0000 0.0000 0.0000 0.0000 48.4254150390625 48.4240112304688 0.00140380859375 0 0 0 0.0000 0.0000 0.0000 0.0000 0x00400000 1.7060546875 0x10000000 0.25 0x7fffc000 1 0x00400140 0x7fff8000 0 0.0018310546875 120k 0.0018310546875 760.371826171875 0.0000 
32768 170.978973388672 50.2091369628906 0.001678466796875 101866.1636 170.978973388672 170.965942382812 0.013031005859375 0.005218505859375 0 0 0.0001 0.0000 0.0000 0.0000 50.2112731933594 49.3770446777344 0.834228515625 0.826416015625 0.79638671875 0 0.0166 0.0165 0.0159 0.0000 1.64364624023438 1.49288940429688 0.1507568359375 0 0 0 0.0917 0.0000 0.0000 0.0000 170.978973388672 170.978759765625 0.000213623046875 0 0 0 0.0000 0.0000 0.0000 0.0000 50.2112731933594 50.2100830078125 0.001190185546875 0 0 0 0.0000 0.0000 0.0000 0.0000 0x00400000 0.85400390625 0x10000000 0.125 0x7fffc000 0.5 0x00400140 0x7fff8000 0 0.00140380859375 184k 0.00140380859375 789.622619628906 0.0000 
65536 180.048629760742 52.2504425048828 0.0015411376953125 116828.3861 180.048629760742 180.042053222656 0.0065765380859375 0.0026702880859375 0 0 0.0000 0.0000 0.0000 0.0000 52.2515106201172 51.2719116210938 0.979598999023438 0.975692749023438 0.9300537109375 0 0.0187 0.0187 0.0178 0.0000 1.91622924804688 1.77827453613281 0.137954711914062 0 0 0 0.0720 0.0000 0.0000 0.0000 180.048629760742 180.048522949219 0.0001068115234375 0 0 0 0.0000 0.0000 0.0000 0.0000 52.2515106201172 52.2504272460938 0.0010833740234375 0 0 0 0.0000 0.0000 0.0000 0.0000 0x00400000 0.427001953125 0x10000000 0.0625 0x7fffc000 0.25 0x00400140 0x7fff8000 0 0.001190185546875 312k 0.001190185546875 827.339630126953 0.0000 
131072 191.494132995605 54.6794128417969 0.001434326171875 133508.0798 191.494132995605 191.490875244141 0.00325775146484375 0.00130462646484375 0 0 0.0000 0.0000 0.0000 0.0000 54.6799468994141 53.4976043701172 1.18234252929688 1.18038940429688 1.08033752441406 0 0.0216 0.0216 0.0198 0.0000 2.26593780517578 2.13449096679688 0.131446838378906 0 0 0 0.0580 0.0000 0.0000 0.0000 191.494132995605 191.494079589844 5.340576171875e-05 0 0 0 0.0000 0.0000 0.0000 0.0000 54.6799468994141 54.6787261962891 0.001220703125 0.000244140625 0.00023651123046875 0 0.0000 0.0000 0.0000 0.0000 0x00400000 0.2135009765625 0x10000000 0.03125 0x7fffc000 0.125 0x00400140 0x7fff8000 0 0.0010833740234375 568k 0.0010833740234375 876.657470703125 0.0000 
262144 197.923595428467 56.4071426391602 0.00131607055664062 150389.8058 197.923595428467 197.921951293945 0.00164413452148438 0.000667572021484375 0 0 0.0000 0.0000 0.0000 0.0000 56.4074096679688 55.1356964111328 1.27171325683594 1.27073669433594 1.19742965698242 0 0.0225 0.0225 0.0212 0.0000 2.47078704833984 2.34254837036133 0.128238677978516 0 0 0 0.0519 0.0000 0.0000 0.0000 197.923595428467 197.923568725586 2.6702880859375e-05 0 0 0 0.0000 0.0000 0.0000 0.0000 56.4074096679688 56.4045372009277 0.00287246704101562 0.00238418579101562 0.00238037109375 0 0.0001 0.0000 0.0000 0.0000 0x00400000 0.10675048828125 0x10000000 0.015625 0x7fffc000 0.0625 0x00400140 0x7fff8000 0 0.00102996826171875 1080k 0.00102996826171875 905.169723510742 0.0000 
524288 209.941877365112 58.9095344543457 0.00111961364746094 187512.7888 209.941877365112 209.94109916687 0.0007781982421875 0.0002899169921875 0 0 0.0000 0.0000 0.0000 0.0000 58.90966796875 57.4308013916016 1.47886657714844 1.47837829589844 1.35021781921387 0 0.0251 0.0251 0.0229 0.0000 2.82986259460449 2.70326805114746 0.126594543457031 0 0 0 0.0447 0.0000 0.0000 0.0000 209.941877365112 209.941864013672 1.33514404296875e-05 0 0 0 0.0000 0.0000 0.0000 0.0000 58.90966796875 58.9053287506104 0.00433921813964844 0.00409507751464844 0.00409317016601562 0 0.0001 0.0001 0.0001 0.0000 0x00400000 0.053375244140625 0x10000000 0.0078125 0x7fffc000 0.03125 0x00400140 0x7fff8000 0 0.00100326538085938 2104k 0.00100326538085938 957.917106628418 0.0000 
1048576 217.100955963135 60.7415828704834 0.000799179077148438 271654.9547 217.100955963135 217.100543022156 0.000412940979003906 0.000168800354003906 0 0 0.0000 0.0000 0.0000 0.0000 60.7416496276855 59.1673717498779 1.57427787780762 1.57403373718262 1.47200870513916 0 0.0259 0.0259 0.0242 0.0000 3.04669952392578 2.80973339080811 0.236966133117676 0.111966133117676 0.111740112304688 0 0.0778 0.0367 0.0367 0.0000 217.100955963135 217.100949287415 6.67572021484375e-06 0 0 0 0.0000 0.0000 0.0000 0.0000 60.7416496276855 60.7363367080688 0.00531291961669922 0.00519084930419922 0.00518989562988281 0 0.0001 0.0001 0.0001 0.0000 0x00400000 0.0266876220703125 0x10000000 0.00390625 0x7fffc000 0.015625 0x00400140 0x7fff8000 0 0.000989913940429688 4152k 0.000989913940429688 990.052253723145 0.0000 
2097152 226.63751745224 62.9205536842346 0.000467300415039062 484993.1867 226.63751745224 226.637311935425 0.000205516815185547 8.34465026855469e-05 0 0 0.0000 0.0000 0.0000 0.0000 62.9205870628357 61.1881537437439 1.7324333190918 1.7323112487793 1.60973739624023 0 0.0275 0.0275 0.0256 0.0000 3.34237623214722 2.980881690979 0.361494541168213 0.298994541168213 0.295026779174805 0 0.1082 0.0895 0.0883 0.0000 226.63751745224 226.63751411438 3.33786010742188e-06 0 0 0 0.0000 0.0000 0.0000 0.0000 62.9205870628357 62.9141216278076 0.00646543502807617 0.00640439987182617 0.00640392303466797 0 0.0001 0.0001 0.0001 0.0000 0x00400000 0.0133438110351562 0x10000000 0.001953125 0x7fffc000 0.0078125 0x00400140 0x7fff8000 0 0.000983238220214844 8248k 0.000983238220214844 1032.47380924225 0.0000 
4194304 233.861929178238 64.7640993595123 0.000304222106933594 768721.0227 233.861929178238 233.861827850342 0.000101327896118164 4.02927398681641e-05 0 0 0.0000 0.0000 0.0000 0.0000 64.7641160488129 62.931161403656 1.83295464515686 1.83289361000061 1.72544884681702 0 0.0283 0.0283 0.0266 0.0000 3.55850481987 3.07422637939453 0.484278440475464 0.453028440475464 0.449453353881836 0 0.1361 0.1273 0.1263 0.0000 233.861929178238 233.861927509308 1.66893005371094e-06 0 0 0 0.0000 0.0000 0.0000 0.0000 64.7641160488129 64.7568039894104 0.00731205940246582 0.00728154182434082 0.00728130340576172 0 0.0001 0.0001 0.0001 0.0000 0x00400000 0.00667190551757812 0x10000000 0.0009765625 0x7fffc000 0.00390625 0x00400140 0x7fff8000 0 0.000979900360107422 16440k 0.000979900360107422 1065.01723146439 0.0000 
