#set_size_in_keys sim_num_insn sim_num_refs sim_elapsed_time sim_inst_rate sim_num_branches sim_IPB bpred_2lev.lookups bpred_2lev.updates bpred_2lev.addr_hits bpred_2lev.dir_hits bpred_2lev.misses bpred_2lev.jr_hits bpred_2lev.jr_seen bpred_2lev.jr_non_ras_hits.PP bpred_2lev.jr_non_ras_seen.PP bpred_2lev.bpred_addr_rate bpred_2lev.bpred_dir_rate bpred_2lev.bpred_jr_rate bpred_2lev.bpred_jr_non_ras_rate.PP bpred_2lev.retstack_pushes bpred_2lev.retstack_pops bpred_2lev.used_ras.PP bpred_2lev.ras_hits.PP bpred_2lev.ras_rate.PP
4096 148.613037109375 45.908935546875 0.000244140625 608719.0000 26.468505859375 5.6147 26.468505859375 26.468505859375 19.857177734375 19.887939453125 6.58056640625 2.08984375 2.08984375 0 0 0.7502 0.7514 1.0000 <error: 2.09033203125 2.08984375 2.08984375 2.08984375 1.0000 
8192 156.69873046875 47.126708984375 0.0001220703125 1283676.0000 27.9141845703125 5.6136 27.9141845703125 27.9141845703125 20.9847412109375 20.9996337890625 6.91455078125 2.044921875 2.044921875 0 0 0.7518 0.7523 1.0000 <error: 2.045166015625 2.044921875 2.044921875 2.044921875 1.0000 
16384 163.241088867188 48.421142578125 6.103515625e-05 2674542.0000 29.145263671875 5.6009 29.145263671875 29.145263671875 21.7783813476562 21.7864990234375 7.3587646484375 2.0224609375 2.0224609375 0 0 0.7472 0.7475 1.0000 <error: 2.0225830078125 2.0224609375 2.0224609375 2.0224609375 1.0000 
32768 170.978973388672 50.2091369628906 6.103515625e-05 2801319.5000 30.5395812988281 5.5986 30.5395812988281 30.5395812988281 22.5873718261719 22.5912475585938 7.94833374023438 2.01123046875 2.01123046875 0 0 0.7396 0.7397 1.0000 <error: 2.01129150390625 2.01123046875 2.01123046875 2.01123046875 1.0000 
65536 180.048629760742 52.2504425048828 4.57763671875e-05 3933222.3333 32.1664428710938 5.5974 32.1664428710938 32.1664428710938 23.7251586914062 23.7272491455078 8.43919372558594 2.005615234375 2.005615234375 0 0 0.7376 0.7376 1.0000 <error: 2.00564575195312 2.005615234375 2.005615234375 2.005615234375 1.0000 
131072 191.494132995605 54.6794128417969 5.340576171875e-05 3585645.5714 34.2095794677734 5.5977 34.2095794677734 34.2095794677734 25.3681869506836 25.3691558837891 8.84042358398438 2.0028076171875 2.0028076171875 0 0 0.7416 0.7416 1.0000 <error: 2.00282287597656 2.0028076171875 2.0028076171875 2.0028076171875 1.0000 
262144 197.923595428467 56.4071426391602 4.9591064453125e-05 3991114.0769 35.4371566772461 5.5852 35.4371566772461 35.4371566772461 26.086238861084 26.086727142334 9.35042953491211 2.00140380859375 2.00140380859375 0 0 0.7361 0.7361 1.0000 <error: 2.00141143798828 2.00140380859375 2.00140380859375 2.00140380859375 1.0000 
524288 209.941877365112 58.9095344543457 5.53131103515625e-05 3795517.4828 37.5046672821045 5.5978 37.5046672821045 37.5046672821045 27.7366619110107 27.7368927001953 9.76777458190918 2.00070190429688 2.00070190429688 0 0 0.7396 0.7396 1.0000 <error: 2.00070571899414 2.00070190429688 2.00070190429688 2.00070190429688 1.0000 
1048576 217.100955963135 60.7415828704834 5.53131103515625e-05 3924945.7241 38.8350009918213 5.5903 38.8350009918213 38.8350009918213 28.5535659790039 28.5536880493164 10.2813129425049 2.00035095214844 2.00035095214844 0 0 0.7353 0.7353 1.0000 <error: 2.00035285949707 2.00035095214844 2.00035095214844 2.00035095214844 1.0000 
2097152 226.63751745224 62.9205536842346 5.86509704589844e-05 3864173.3577 40.5507202148438 5.5890 40.5507202148438 40.5507202148438 29.7844748497009 29.784538269043 10.7661819458008 2.00017547607422 2.00017547607422 0 0 0.7345 0.7345 1.0000 <error: 2.00017642974854 2.00017547607422 2.00017547607422 2.00017547607422 1.0000 
4194304 233.861929178238 64.7640993595123 6.05583190917969e-05 3861763.8780 41.8759734630585 5.5846 41.8759734630585 41.8759734630585 30.5365839004517 30.5366141796112 11.3393592834473 2.00008773803711 2.00008773803711 0 0 0.7292 0.7292 1.0000 <error: 2.00008821487427 2.00008773803711 2.00008773803711 2.00008773803711 1.0000 
