#set_size_in_keys sim_num_insn sim_num_refs sim_elapsed_time sim_inst_rate sim_num_branches sim_IPB bpred_bimod.lookups bpred_bimod.updates bpred_bimod.addr_hits bpred_bimod.dir_hits bpred_bimod.misses bpred_bimod.jr_hits bpred_bimod.jr_seen bpred_bimod.jr_non_ras_hits.PP bpred_bimod.jr_non_ras_seen.PP bpred_bimod.bpred_addr_rate bpred_bimod.bpred_dir_rate bpred_bimod.bpred_jr_rate bpred_bimod.bpred_jr_non_ras_rate.PP bpred_bimod.retstack_pushes bpred_bimod.retstack_pops bpred_bimod.used_ras.PP bpred_bimod.ras_hits.PP bpred_bimod.ras_rate.PP
4096 1.506103515625 0.8896484375 0.000244140625 6169.0000 0.178955078125 8.4161 0.178955078125 0.178955078125 0.14013671875 0.16162109375 0.017333984375 0.013427734375 0.013671875 0 0 0.7831 0.9031 0.9821 <error: 0.01416015625 0.013671875 0.013671875 0.013427734375 0.9821 
8192 0.7535400390625 0.44482421875 0.0001220703125 6173.0000 0.0894775390625 8.4216 0.0894775390625 0.0894775390625 0.070068359375 0.080810546875 0.0086669921875 0.0067138671875 0.0068359375 0 0 0.7831 0.9031 0.9821 <error: 0.007080078125 0.0068359375 0.0068359375 0.0067138671875 0.9821 
16384 0.37689208984375 0.222412109375 6.103515625e-05 6175.0000 0.04473876953125 8.4243 0.04473876953125 0.04473876953125 0.03509521484375 0.04052734375 0.00421142578125 0.00335693359375 0.00341796875 0 0 0.7844 0.9059 0.9821 <error: 0.0035400390625 0.00341796875 0.00341796875 0.00335693359375 0.9821 
32768 0.1884765625 0.1112060546875 3.0517578125e-05 6176.0000 0.022369384765625 8.4256 0.022369384765625 0.022369384765625 0.017547607421875 0.020233154296875 0.00213623046875 0.001678466796875 0.001708984375 0 0 0.7844 0.9045 0.9821 <error: 0.00177001953125 0.001708984375 0.001708984375 0.001678466796875 0.9821 
65536 0.09423828125 0.05560302734375 1.52587890625e-05 6176.0000 0.0111846923828125 8.4256 0.0111846923828125 0.0111846923828125 0.0087738037109375 0.0101165771484375 0.001068115234375 0.0008392333984375 0.0008544921875 0 0 0.7844 0.9045 0.9821 <error: 0.000885009765625 0.0008544921875 0.0008544921875 0.0008392333984375 0.9821 
131072 0.0471267700195312 0.027801513671875 7.62939453125e-06 6177.0000 0.00559234619140625 8.4270 0.00559234619140625 0.00559234619140625 0.00438690185546875 0.00506591796875 0.00052642822265625 0.00041961669921875 0.00042724609375 0 0 0.7844 0.9059 0.9821 <error: 0.0004425048828125 0.00042724609375 0.00042724609375 0.00041961669921875 0.9821 
262144 0.0235633850097656 0.0139007568359375 3.814697265625e-06 6177.0000 0.00279617309570312 8.4270 0.00279617309570312 0.00279617309570312 0.00219345092773438 0.002532958984375 0.000263214111328125 0.000209808349609375 0.000213623046875 0 0 0.7844 0.9059 0.9821 <error: 0.00022125244140625 0.000213623046875 0.000213623046875 0.000209808349609375 0.9821 
524288 0.0117816925048828 0.00695037841796875 1.9073486328125e-06 6177.0000 0.00139808654785156 8.4270 0.00139808654785156 0.00139808654785156 0.00109672546386719 0.0012664794921875 0.000131607055664062 0.000104904174804688 0.0001068115234375 0 0 0.7844 0.9059 0.9821 <error: 0.000110626220703125 0.0001068115234375 0.0001068115234375 0.000104904174804688 0.9821 
1048576 0.00589084625244141 0.00347518920898438 9.5367431640625e-07 6177.0000 0.000699043273925781 8.4270 0.000699043273925781 0.000699043273925781 0.000548362731933594 0.00063323974609375 6.58035278320312e-05 5.24520874023438e-05 5.340576171875e-05 0 0 0.7844 0.9059 0.9821 <error: 5.53131103515625e-05 5.340576171875e-05 5.340576171875e-05 5.24520874023438e-05 0.9821 
2097152 0.0029454231262207 0.00173759460449219 4.76837158203125e-07 6177.0000 0.000349521636962891 8.4270 0.000349521636962891 0.000349521636962891 0.000274181365966797 0.000316619873046875 3.29017639160156e-05 2.62260437011719e-05 2.6702880859375e-05 0 0 0.7844 0.9059 0.9821 <error: 2.76565551757812e-05 2.6702880859375e-05 2.6702880859375e-05 2.62260437011719e-05 0.9821 
4194304 0.00147271156311035 0.000868797302246094 2.38418579101562e-07 6177.0000 0.000174760818481445 8.4270 0.000174760818481445 0.000174760818481445 0.000137090682983398 0.000158309936523438 1.64508819580078e-05 1.31130218505859e-05 1.33514404296875e-05 0 0 0.7844 0.9059 0.9821 <error: 1.38282775878906e-05 1.33514404296875e-05 1.33514404296875e-05 1.31130218505859e-05 0.9821 
