#set_size_in_keys sim_num_insn sim_num_refs sim_elapsed_time sim_inst_rate il1.accesses il1.hits il1.misses il1.replacements il1.writebacks il1.invalidations il1.miss_rate il1.repl_rate il1.wb_rate il1.inv_rate dl1.accesses dl1.hits dl1.misses dl1.replacements dl1.writebacks dl1.invalidations dl1.miss_rate dl1.repl_rate dl1.wb_rate dl1.inv_rate dl2.accesses dl2.hits dl2.misses dl2.replacements dl2.writebacks dl2.invalidations dl2.miss_rate dl2.repl_rate dl2.wb_rate dl2.inv_rate itlb.accesses itlb.hits itlb.misses itlb.replacements itlb.writebacks itlb.invalidations itlb.miss_rate itlb.repl_rate itlb.wb_rate itlb.inv_rate dtlb.accesses dtlb.hits dtlb.misses dtlb.replacements dtlb.writebacks dtlb.invalidations dtlb.miss_rate dtlb.repl_rate dtlb.wb_rate dtlb.inv_rate ld_text_base ld_text_size ld_data_base ld_data_size ld_stack_base ld_stack_size ld_prog_entry ld_environ_base ld_target_big_endian mem.page_count mem.page_mem mem.ptab_misses mem.ptab_accesses mem.ptab_miss_rate
4096 251.715576171875 73.30224609375 0.002197265625 114558.5556 251.715576171875 251.62451171875 0.091064453125 0.028564453125 0 0 0.0004 0.0001 0.0000 0.0000 73.3193359375 70.080078125 3.2392578125 3.1767578125 1.70068359375 0 0.0442 0.0433 0.0232 0.0000 5.031005859375 4.588134765625 0.44287109375 0 0 0 0.0880 0.0000 0.0000 0.0000 251.715576171875 251.7138671875 0.001708984375 0 0 0 0.0000 0.0000 0.0000 0.0000 73.3193359375 73.31591796875 0.00341796875 0 0 0 0.0000 0.0000 0.0000 0.0000 0x00400000 6.4375 0x10000000 1 0x7fffc000 4 0x00400140 0x7fff8000 0 0.005126953125 84k 0.005126953125 1193.40380859375 0.0000 
8192 266.775390625 75.35302734375 0.0018310546875 145694.9333 266.775390625 266.7333984375 0.0419921875 0.0107421875 0 0 0.0002 0.0000 0.0000 0.0000 75.361572265625 72.178955078125 3.1826171875 3.1513671875 1.6634521484375 0 0.0422 0.0418 0.0221 0.0000 4.8880615234375 4.5452880859375 0.3427734375 0 0 0 0.0701 0.0000 0.0000 0.0000 266.775390625 266.774536132812 0.0008544921875 0 0 0 0.0000 0.0000 0.0000 0.0000 75.361572265625 75.35888671875 0.002685546875 0 0 0 0.0000 0.0000 0.0000 0.0000 0x00400000 3.22265625 0x10000000 0.5 0x7fffc000 2 0x00400140 0x7fff8000 0 0.0035400390625 116k 0.0035400390625 1237.79956054688 0.0000 
16384 287.777038574219 81.8636474609375 0.0015869140625 181343.8077 287.777038574219 287.754577636719 0.0224609375 0.0068359375 0 0 0.0001 0.0000 0.0000 0.0000 81.867919921875 78.2130126953125 3.6549072265625 3.6392822265625 1.89520263671875 0 0.0446 0.0445 0.0231 0.0000 5.57257080078125 5.274658203125 0.29791259765625 0 0 0 0.0535 0.0000 0.0000 0.0000 287.777038574219 287.776611328125 0.00042724609375 0 0 0 0.0000 0.0000 0.0000 0.0000 81.867919921875 81.8656005859375 0.0023193359375 0 0 0 0.0000 0.0000 0.0000 0.0000 0x00400000 1.6123046875 0x10000000 0.25 0x7fffc000 1 0x00400140 0x7fff8000 0 0.00274658203125 180k 0.00274658203125 1324.83728027344 0.0000 
32768 304.219329833984 84.613525390625 0.002716064453125 112007.4045 304.219329833984 304.208801269531 0.010528564453125 0.002716064453125 0 0 0.0000 0.0000 0.0000 0.0000 84.6156616210938 80.9749755859375 3.64068603515625 3.63287353515625 1.8858642578125 0 0.0430 0.0429 0.0223 0.0000 5.53707885742188 5.26385498046875 0.273223876953125 0 0 0 0.0493 0.0000 0.0000 0.0000 304.219329833984 304.219116210938 0.000213623046875 0 0 0 0.0000 0.0000 0.0000 0.0000 84.6156616210938 84.613525390625 0.00213623046875 0 0 0 0.0000 0.0000 0.0000 0.0000 0x00400000 0.80712890625 0x10000000 0.125 0x7fffc000 0.5 0x00400140 0x7fff8000 0 0.002349853515625 308k 0.002349853515625 1391.11114501953 0.0000 
65536 325.965286254883 91.4933776855469 0.0019989013671875 163072.2214 325.965286254883 325.959655761719 0.0056304931640625 0.0017242431640625 0 0 0.0000 0.0000 0.0000 0.0000 91.4944458007812 87.3607788085938 4.1336669921875 4.1297607421875 2.1312255859375 0 0.0452 0.0451 0.0233 0.0000 6.27052307128906 6.00852966308594 0.261993408203125 0 0 0 0.0418 0.0000 0.0000 0.0000 325.965286254883 325.965179443359 0.0001068115234375 0 0 0 0.0000 0.0000 0.0000 0.0000 91.4944458007812 91.4912261962891 0.0032196044921875 0.0012664794921875 0.000762939453125 0 0.0000 0.0000 0.0000 0.0000 0x00400000 0.403564453125 0x10000000 0.0625 0x7fffc000 0.25 0x00400140 0x7fff8000 0 0.0021514892578125 564k 0.0021514892578125 1489.3512878418 0.0000 
131072 342.846031188965 94.4345703125 0.00128936767578125 265902.4556 342.846031188965 342.843399047852 0.00263214111328125 0.00067901611328125 0 0 0.0000 0.0000 0.0000 0.0000 94.4351043701172 90.3050231933594 4.13008117675781 4.12812805175781 2.12886810302734 0 0.0437 0.0437 0.0225 0.0000 6.26158142089844 6.00577545166016 0.255805969238281 0 0 0 0.0409 0.0000 0.0000 0.0000 342.846031188965 342.845977783203 5.340576171875e-05 0 0 0 0.0000 0.0000 0.0000 0.0000 94.4351043701172 94.403205871582 0.0318984985351562 0.0309219360351562 0.0162200927734375 0 0.0003 0.0003 0.0002 0.0000 0x00400000 0.2017822265625 0x10000000 0.03125 0x7fffc000 0.125 0x00400140 0x7fff8000 0 0.00205230712890625 1076k 0.00205230712890625 1561.50495910645 0.0000 
262144 364.783515930176 101.405830383301 0.00107955932617188 337900.3887 364.783515930176 364.782108306885 0.00140762329101562 0.000431060791015625 0 0 0.0000 0.0000 0.0000 0.0000 101.406097412109 96.7776908874512 4.6284065246582 4.6274299621582 2.37779235839844 0 0.0456 0.0456 0.0234 0.0000 7.00760650634766 6.75460815429688 0.252998352050781 0 0 0 0.0361 0.0000 0.0000 0.0000 364.783515930176 364.783489227295 2.6702880859375e-05 0 0 0 0.0000 0.0000 0.0000 0.0000 101.406097412109 101.369968414307 0.0361289978027344 0.0356407165527344 0.0183868408203125 0 0.0004 0.0004 0.0002 0.0000 0x00400000 0.10089111328125 0x10000000 0.015625 0x7fffc000 0.0625 0x00400140 0x7fff8000 0 0.00200271606445312 2100k 0.00200271606445312 1662.5715713501 0.0000 
524288 381.750581741333 104.389492034912 0.00075531005859375 505422.3460 381.750581741333 381.749923706055 0.000658035278320312 0.000169754028320312 0 0 0.0000 0.0000 0.0000 0.0000 104.389625549316 99.7621593475342 4.62746620178223 4.62697792053223 2.37716102600098 0 0.0443 0.0443 0.0228 0.0000 7.00528526306152 5.80574607849121 1.19953918457031 0.949539184570312 0.947906494140625 0 0.1712 0.1355 0.1353 0.0000 381.750581741333 381.750568389893 1.33514404296875e-05 0 0 0 0.0000 0.0000 0.0000 0.0000 104.389625549316 104.353481292725 0.0361442565917969 0.0359001159667969 0.0184860229492188 0 0.0003 0.0003 0.0002 0.0000 0x00400000 0.050445556640625 0x10000000 0.0078125 0x7fffc000 0.03125 0x00400140 0x7fff8000 0 0.00197792053222656 4148k 0.00197792053222656 1736.09423446655 0.0000 
1048576 403.73456287384 111.388705253601 0.000885963439941406 455701.1550 403.73456287384 403.734171867371 0.000391006469726562 0.000146865844726562 0 0 0.0000 0.0000 0.0000 0.0000 111.388772010803 106.260621070862 5.12815093994141 5.12790679931641 2.6276273727417 0 0.0460 0.0460 0.0236 0.0000 7.75616931915283 2.66141986846924 5.09474945068359 4.96974945068359 2.56366157531738 0 0.6569 0.6407 0.3305 0.0000 403.73456287384 403.73455619812 6.67572021484375e-06 0 0 0 0.0000 0.0000 0.0000 0.0000 111.388772010803 111.348706245422 0.0400657653808594 0.0399436950683594 0.0204916000366211 0 0.0004 0.0004 0.0002 0.0000 0x00400000 0.0252227783203125 0x10000000 0.00390625 0x7fffc000 0.015625 0x00400140 0x7fff8000 0 0.00197124481201172 8268k 0.0934352874755859 1837.87212371826 0.0001 
2097152 420.7346367836 114.385435581207 0.000573635101318359 733453.4372 420.7346367836 420.734443187714 0.000193595886230469 7.15255737304688e-05 0 0 0.0000 0.0000 0.0000 0.0000 114.385468959808 109.257719516754 5.1277494430542 5.1276273727417 2.62748861312866 0 0.0448 0.0448 0.0230 0.0000 7.75543165206909 2.64463901519775 5.11079263687134 5.04829263687134 2.59469652175903 0 0.6590 0.6509 0.3346 0.0000 420.7346367836 420.73463344574 3.33786010742188e-06 0 0 0 0.0000 0.0000 0.0000 0.0000 114.385468959808 114.345398902893 0.0400700569152832 0.0400090217590332 0.0205183029174805 0 0.0004 0.0003 0.0002 0.0000 0x00400000 0.0126113891601562 0x10000000 0.001953125 0x7fffc000 0.0078125 0x00400140 0x7fff8000 0 0.00196504592895508 16484k 0.050114631652832 1911.78764915466 0.0000 
4194304 442.726914167404 121.381753444672 0.000429153442382812 1031628.4817 442.726914167404 442.726816415787 9.77516174316406e-05 3.67164611816406e-05 0 0 0.0000 0.0000 0.0000 0.0000 121.381770133972 115.754214048386 5.62755608558655 5.6274950504303 2.87742495536804 0 0.0464 0.0464 0.0237 0.0000 8.50507879257202 2.88672375679016 5.61835503578186 5.58710503578186 2.86021709442139 0 0.6606 0.6569 0.3363 0.0000 442.726914167404 442.726912498474 1.66893005371094e-06 0 0 0 0.0000 0.0000 0.0000 0.0000 121.381770133972 121.337789773941 0.0439803600311279 0.0439498424530029 0.0224840641021729 0 0.0004 0.0004 0.0002 0.0000 0x00400000 0.00630569458007812 0x10000000 0.0009765625 0x7fffc000 0.00390625 0x00400140 0x7fff8000 0 0.00196194648742676 32916k 0.0272102355957031 2013.71027898788 0.0000 
